
     RDKit          2D

 29 31  0  0  0  0  0  0  0  0999 V2000
    2.3638   -6.3821    0.0000 C   0  0  0  0  0  0  0  0  0  0  0  0
    1.7537   -5.0118    0.0000 N   0  0  0  0  0  0  0  0  0  0  0  0
    2.5037   -3.7128    0.0000 C   0  0  0  0  0  0  0  0  0  0  0  0
    3.9955   -3.5560    0.0000 O   0  0  0  0  0  0  0  0  0  0  0  0
    1.5000   -2.5981    0.0000 C   0  0  0  0  0  0  0  0  0  0  0  0
    0.7500   -1.2990    0.0000 C   0  0  0  0  0  0  0  0  0  0  0  0
    1.5000    0.0000    0.0000 C   0  0  0  0  0  0  0  0  0  0  0  0
    0.7500    1.2990    0.0000 C   0  0  0  0  0  0  0  0  0  0  0  0
   -0.7500    1.2990    0.0000 C   0  0  0  0  0  0  0  0  0  0  0  0
   -1.5000    2.5981    0.0000 O   0  0  0  0  0  0  0  0  0  0  0  0
   -0.7500    3.8971    0.0000 C   0  0  0  0  0  0  0  0  0  0  0  0
   -1.5000    5.1962    0.0000 F   0  0  0  0  0  0  0  0  0  0  0  0
    0.7500    3.8971    0.0000 F   0  0  0  0  0  0  0  0  0  0  0  0
   -1.5000    0.0000    0.0000 C   0  0  0  0  0  0  0  0  0  0  0  0
   -0.7500   -1.2990    0.0000 C   0  0  0  0  0  0  0  0  0  0  0  0
    2.7135   -1.7164    0.0000 C   0  0  0  0  0  0  0  0  0  0  0  0
    4.0838   -2.3265    0.0000 C   0  0  0  0  0  0  0  0  0  0  0  0
    5.2974   -1.4448    0.0000 C   0  0  0  0  0  0  0  0  0  0  0  0
    5.1406    0.0470    0.0000 C   0  0  0  0  0  0  0  0  0  0  0  0
    3.7703    0.6571    0.0000 C   0  0  0  0  0  0  0  0  0  0  0  0
    3.6135    2.1488    0.0000 C   0  0  0  0  0  0  0  0  0  0  0  0
    4.8270    3.0305    0.0000 C   0  0  0  0  0  0  0  0  0  0  0  0
    4.6702    4.5223    0.0000 C   0  0  0  0  0  0  0  0  0  0  0  0
    5.8837    5.4040    0.0000 C   0  0  0  0  0  0  0  0  0  0  0  0
    5.7269    6.8958    0.0000 O   0  0  0  0  0  0  0  0  0  0  0  0
    2.5567   -0.2246    0.0000 C   0  0  0  0  0  0  0  0  0  0  0  0
    0.1297   -3.2082    0.0000 N   0  0  0  0  0  0  0  0  0  0  0  0
    0.2865   -4.7000    0.0000 C   0  0  0  0  0  0  0  0  0  0  0  0
   -0.8282   -5.7037    0.0000 N   0  0  0  0  0  0  0  0  0  0  0  0
  1  2  1  0
  2  3  1  0
  3  4  2  0
  3  5  1  0
  5  6  1  1
  6  7  2  0
  7  8  1  0
  8  9  2  0
  9 10  1  0
 10 11  1  0
 11 12  1  0
 11 13  1  0
  9 14  1  0
 14 15  2  0
  5 16  1  0
 16 17  2  0
 17 18  1  0
 18 19  2  0
 19 20  1  0
 20 21  1  0
 21 22  2  0
 22 23  1  0
 23 24  1  0
 24 25  1  0
 20 26  2  0
  5 27  1  0
 27 28  2  0
 28 29  1  0
 28  2  1  0
 15  6  1  0
 26 16  1  0
M  END
>  <id>  (1) 
BACE_695

>  <pic50>  (1) 
7.3010302

>  <pic50_predicted>  (1) 
7.15287888112478

>  <deviation>  (1) 
0.01553303034815148

>  <pic50_predicted_optimized>  (1) 
7.168411911472931

$$$$

     RDKit          2D

 29 31  0  0  0  0  0  0  0  0999 V2000
    7.5000   -2.5981    0.0000 C   0  0  0  0  0  0  0  0  0  0  0  0
    6.0000   -2.5981    0.0000 O   0  0  0  0  0  0  0  0  0  0  0  0
    5.2500   -1.2990    0.0000 C   0  0  0  0  0  0  0  0  0  0  0  0
    3.7500   -1.2990    0.0000 C   0  0  0  0  0  0  0  0  0  0  0  0
    3.0000    0.0000    0.0000 C   0  0  0  0  0  0  0  0  0  0  0  0
    1.5000    0.0000    0.0000 C   0  0  0  0  0  0  0  0  0  0  0  0
    0.7500   -1.2990    0.0000 C   0  0  0  0  0  0  0  0  0  0  0  0
   -0.7500   -1.2990    0.0000 C   0  0  0  0  0  0  0  0  0  0  0  0
   -1.5000    0.0000    0.0000 C   0  0  0  0  0  0  0  0  0  0  0  0
   -0.7500    1.2990    0.0000 C   0  0  0  0  0  0  0  0  0  0  0  0
   -1.5000    2.5981    0.0000 C   0  0  0  0  0  0  0  0  0  0  0  0
   -0.1297    3.2082    0.0000 C   0  0  0  0  0  0  0  0  0  0  0  0
    1.0838    2.3265    0.0000 C   0  0  0  0  0  0  0  0  0  0  0  0
    2.4542    2.9366    0.0000 C   0  0  0  0  0  0  0  0  0  0  0  0
    2.6110    4.4284    0.0000 C   0  0  0  0  0  0  0  0  0  0  0  0
    3.9813    5.0385    0.0000 O   0  0  0  0  0  0  0  0  0  0  0  0
    5.1948    4.1568    0.0000 C   0  0  0  0  0  0  0  0  0  0  0  0
    6.5651    4.7669    0.0000 F   0  0  0  0  0  0  0  0  0  0  0  0
    5.0380    2.6650    0.0000 F   0  0  0  0  0  0  0  0  0  0  0  0
    1.3974    5.3101    0.0000 C   0  0  0  0  0  0  0  0  0  0  0  0
    0.0271    4.7000    0.0000 C   0  0  0  0  0  0  0  0  0  0  0  0
   -1.9635    4.0247    0.0000 N   0  0  0  0  0  0  0  0  0  0  0  0
   -3.4635    4.0247    0.0000 C   0  0  0  0  0  0  0  0  0  0  0  0
   -4.3452    5.2382    0.0000 N   0  0  0  0  0  0  0  0  0  0  0  0
   -3.9271    2.5981    0.0000 N   0  0  0  0  0  0  0  0  0  0  0  0
   -5.3536    2.1346    0.0000 C   0  0  0  0  0  0  0  0  0  0  0  0
   -2.7135    1.7164    0.0000 C   0  0  0  0  0  0  0  0  0  0  0  0
   -2.7135    0.2164    0.0000 O   0  0  0  0  0  0  0  0  0  0  0  0
    0.7500    1.2990    0.0000 C   0  0  0  0  0  0  0  0  0  0  0  0
  1  2  1  0
  2  3  1  0
  3  4  1  0
  4  5  2  0
  5  6  1  0
  6  7  2  0
  7  8  1  0
  8  9  2  0
  9 10  1  0
 11 10  1  6
 11 12  1  0
 12 13  2  0
 13 14  1  0
 14 15  2  0
 15 16  1  0
 16 17  1  0
 17 18  1  0
 17 19  1  0
 15 20  1  0
 20 21  2  0
 11 22  1  0
 22 23  2  0
 23 24  1  0
 23 25  1  0
 25 26  1  0
 25 27  1  0
 27 28  2  0
 10 29  2  0
 29  6  1  0
 27 11  1  0
 21 12  1  0
M  END
>  <id>  (2) 
BACE_500

>  <pic50>  (2) 
7.6989698

>  <pic50_predicted>  (2) 
7.17461739551564

>  <deviation>  (2) 
0.01245051833081059

>  <pic50_predicted_optimized>  (2) 
7.187067913846451

$$$$

     RDKit          2D

 31 33  0  0  0  0  0  0  0  0999 V2000
    9.7500   -3.8971    0.0000 C   0  0  0  0  0  0  0  0  0  0  0  0
    8.2500   -3.8971    0.0000 O   0  0  0  0  0  0  0  0  0  0  0  0
    7.5000   -2.5981    0.0000 C   0  0  0  0  0  0  0  0  0  0  0  0
    6.0000   -2.5981    0.0000 C   0  0  0  0  0  0  0  0  0  0  0  0
    5.2500   -1.2990    0.0000 C   0  0  0  0  0  0  0  0  0  0  0  0
    3.7500   -1.2990    0.0000 C   0  0  0  0  0  0  0  0  0  0  0  0
    3.0000    0.0000    0.0000 C   0  0  0  0  0  0  0  0  0  0  0  0
    1.5000    0.0000    0.0000 C   0  0  0  0  0  0  0  0  0  0  0  0
    0.7500   -1.2990    0.0000 C   0  0  0  0  0  0  0  0  0  0  0  0
   -0.7500   -1.2990    0.0000 C   0  0  0  0  0  0  0  0  0  0  0  0
   -1.5000    0.0000    0.0000 C   0  0  0  0  0  0  0  0  0  0  0  0
   -0.7500    1.2990    0.0000 C   0  0  0  0  0  0  0  0  0  0  0  0
   -1.5000    2.5981    0.0000 C   0  0  0  0  0  0  0  0  0  0  0  0
   -0.1297    3.2082    0.0000 C   0  0  0  0  0  0  0  0  0  0  0  0
    1.0838    2.3265    0.0000 C   0  0  0  0  0  0  0  0  0  0  0  0
    2.4542    2.9366    0.0000 C   0  0  0  0  0  0  0  0  0  0  0  0
    2.6110    4.4284    0.0000 C   0  0  0  0  0  0  0  0  0  0  0  0
    3.9813    5.0385    0.0000 O   0  0  0  0  0  0  0  0  0  0  0  0
    5.1948    4.1568    0.0000 C   0  0  0  0  0  0  0  0  0  0  0  0
    6.5651    4.7669    0.0000 F   0  0  0  0  0  0  0  0  0  0  0  0
    5.0380    2.6650    0.0000 F   0  0  0  0  0  0  0  0  0  0  0  0
    1.3974    5.3101    0.0000 C   0  0  0  0  0  0  0  0  0  0  0  0
    0.0271    4.7000    0.0000 C   0  0  0  0  0  0  0  0  0  0  0  0
   -1.9635    4.0247    0.0000 N   0  0  0  0  0  0  0  0  0  0  0  0
   -3.4635    4.0247    0.0000 C   0  0  0  0  0  0  0  0  0  0  0  0
   -4.3452    5.2382    0.0000 N   0  0  0  0  0  0  0  0  0  0  0  0
   -3.9271    2.5981    0.0000 N   0  0  0  0  0  0  0  0  0  0  0  0
   -5.3536    2.1346    0.0000 C   0  0  0  0  0  0  0  0  0  0  0  0
   -2.7135    1.7164    0.0000 C   0  0  0  0  0  0  0  0  0  0  0  0
   -2.7135    0.2164    0.0000 O   0  0  0  0  0  0  0  0  0  0  0  0
    0.7500    1.2990    0.0000 C   0  0  0  0  0  0  0  0  0  0  0  0
  1  2  1  0
  2  3  1  0
  3  4  1  0
  4  5  1  0
  5  6  1  0
  6  7  2  0
  7  8  1  0
  8  9  2  0
  9 10  1  0
 10 11  2  0
 11 12  1  0
 13 12  1  6
 13 14  1  0
 14 15  2  0
 15 16  1  0
 16 17  2  0
 17 18  1  0
 18 19  1  0
 19 20  1  0
 19 21  1  0
 17 22  1  0
 22 23  2  0
 13 24  1  0
 24 25  2  0
 25 26  1  0
 25 27  1  0
 27 28  1  0
 27 29  1  0
 29 30  2  0
 12 31  2  0
 31  8  1  0
 29 13  1  0
 23 14  1  0
M  END
>  <id>  (3) 
BACE_694

>  <pic50>  (3) 
7.3010302

>  <pic50_predicted>  (3) 
7.13746273454099

>  <deviation>  (3) 
0.008925775127304456

>  <pic50_predicted_optimized>  (3) 
7.146388509668294

$$$$

     RDKit          2D

 25 27  0  0  0  0  0  0  0  0999 V2000
    0.4895   -5.3743    0.0000 C   0  0  0  0  0  0  0  0  0  0  0  0
    0.7500   -3.8971    0.0000 C   0  0  0  0  0  0  0  0  0  0  0  0
    2.1595   -4.4101    0.0000 C   0  0  0  0  0  0  0  0  0  0  0  0
    1.5000   -2.5981    0.0000 C   0  0  0  0  0  0  0  0  0  0  0  0
    0.7500   -1.2990    0.0000 C   0  0  0  0  0  0  0  0  0  0  0  0
    1.5000    0.0000    0.0000 C   0  0  0  0  0  0  0  0  0  0  0  0
    0.7500    1.2990    0.0000 C   0  0  0  0  0  0  0  0  0  0  0  0
    1.5000    2.5981    0.0000 Cl  0  0  0  0  0  0  0  0  0  0  0  0
   -0.7500    1.2990    0.0000 C   0  0  0  0  0  0  0  0  0  0  0  0
   -1.5000    0.0000    0.0000 C   0  0  0  0  0  0  0  0  0  0  0  0
   -0.7500   -1.2990    0.0000 C   0  0  0  0  0  0  0  0  0  0  0  0
   -1.5000   -2.5981    0.0000 C   0  0  0  0  0  0  0  0  0  0  0  0
   -3.0000   -2.5981    0.0000 N   0  0  0  0  0  0  0  0  0  0  0  0
   -3.7500   -3.8971    0.0000 C   0  0  0  0  0  0  0  0  0  0  0  0
   -5.2500   -3.8971    0.0000 C   0  0  0  0  0  0  0  0  0  0  0  0
   -6.0000   -5.1962    0.0000 C   0  0  0  0  0  0  0  0  0  0  0  0
   -5.3899   -6.5665    0.0000 C   0  0  0  0  0  0  0  0  0  0  0  0
   -6.5046   -7.5702    0.0000 C   0  0  0  0  0  0  0  0  0  0  0  0
   -7.8037   -6.8202    0.0000 S   0  0  0  0  0  0  0  0  0  0  0  0
   -7.4918   -5.3529    0.0000 C   0  0  0  0  0  0  0  0  0  0  0  0
   -8.4955   -4.2382    0.0000 Br  0  0  0  0  0  0  0  0  0  0  0  0
   -3.0000   -5.1962    0.0000 C   0  0  0  0  0  0  0  0  0  0  0  0
   -1.5000   -5.1962    0.0000 O   0  0  0  0  0  0  0  0  0  0  0  0
   -3.7500   -6.4952    0.0000 O   0  0  0  0  0  1  0  0  0  0  0  0
   -0.7500   -3.8971    0.0000 N   0  0  0  0  0  0  0  0  0  0  0  0
  1  2  1  0
  2  3  1  0
  2  4  1  0
  4  5  1  0
  5  6  2  0
  6  7  1  0
  7  8  1  0
  7  9  2  0
  9 10  1  0
 10 11  2  0
 11 12  1  0
 12 13  1  0
 13 14  1  0
 14 15  1  0
 15 16  1  0
 16 17  1  0
 17 18  2  0
 18 19  1  0
 19 20  1  0
 20 21  1  0
 14 22  1  0
 22 23  2  0
 22 24  1  0
 12 25  2  0
 25  2  1  0
 11  5  1  0
 20 16  2  0
M  CHG  1  24  -1
M  END
>  <id>  (4) 
BACE_1352

>  <pic50>  (4) 
5.0222764

>  <pic50_predicted>  (4) 
5.91808629285627

>  <deviation>  (4) 
0.00041830935693695315

>  <pic50_predicted_optimized>  (4) 
5.918504602213207

$$$$

     RDKit          2D

 39 42  0  0  0  0  0  0  0  0999 V2000
   11.6913   -9.3107    0.0000 C   0  0  0  0  0  0  0  0  0  0  0  0
   10.3923   -8.5607    0.0000 C   0  0  0  0  0  0  0  0  0  0  0  0
    9.0933   -7.8107    0.0000 C   0  0  0  0  0  0  0  0  0  0  0  0
    9.0933   -6.3107    0.0000 C   0  0  0  0  0  0  0  0  0  0  0  0
    7.7942   -5.5607    0.0000 C   0  0  0  0  0  0  0  0  0  0  0  0
    7.7942   -4.0607    0.0000 C   0  0  0  0  0  0  0  0  0  0  0  0
    6.4952   -3.3107    0.0000 C   0  0  0  0  0  0  0  0  0  0  0  0
    6.4952   -1.8107    0.0000 N   0  0  0  0  0  0  0  0  0  0  0  0
    7.7942   -1.0607    0.0000 C   0  0  0  0  0  0  0  0  0  0  0  0
    9.0933   -1.8107    0.0000 O   0  0  0  0  0  0  0  0  0  0  0  0
    7.7942    0.4393    0.0000 C   0  0  0  0  0  0  0  0  0  0  0  0
    9.0933    1.1893    0.0000 O   0  0  0  0  0  0  0  0  0  0  0  0
    9.0933    2.6893    0.0000 C   0  0  0  0  0  0  0  0  0  0  0  0
    5.1962   -4.0607    0.0000 C   0  0  0  0  0  0  0  0  0  0  0  0
    5.1962   -5.5607    0.0000 O   0  0  0  0  0  0  0  0  0  0  0  0
    3.8971   -3.3107    0.0000 C   0  0  0  0  0  0  0  0  0  0  0  0
    2.5981   -4.0607    0.0000 N   0  0  0  0  0  4  0  0  0  0  0  0
    1.2990   -3.3107    0.0000 C   0  0  0  0  0  0  0  0  0  0  0  0
    1.2990   -1.8107    0.0000 C   0  0  0  0  0  0  0  0  0  0  0  0
   -0.0000   -1.0607    0.0000 C   0  0  0  0  0  0  0  0  0  0  0  0
    1.0607    0.0000    0.0000 C   0  0  0  0  0  0  0  0  0  0  0  0
    0.0000    1.0607    0.0000 C   0  0  0  0  0  0  0  0  0  0  0  0
   -1.0607    0.0000    0.0000 C   0  0  0  0  0  0  0  0  0  0  0  0
   -1.2990   -1.8107    0.0000 O   0  0  0  0  0  0  0  0  0  0  0  0
   -1.2990   -3.3107    0.0000 C   0  0  0  0  0  0  0  0  0  0  0  0
   -2.5981   -4.0607    0.0000 N   0  0  0  0  0  0  0  0  0  0  0  0
   -2.5981   -5.5607    0.0000 C   0  0  0  0  0  0  0  0  0  0  0  0
   -1.2990   -6.3107    0.0000 C   0  0  0  0  0  0  0  0  0  0  0  0
   -1.2990   -7.8107    0.0000 C   0  0  0  0  0  0  0  0  0  0  0  0
   -2.5981   -8.5607    0.0000 C   0  0  0  0  0  0  0  0  0  0  0  0
   -1.8481   -9.8597    0.0000 C   0  0  0  0  0  0  0  0  0  0  0  0
   -3.3481   -7.2616    0.0000 C   0  0  0  0  0  0  0  0  0  0  0  0
   -3.8971   -9.3107    0.0000 C   0  0  0  0  0  0  0  0  0  0  0  0
   -0.0000   -5.5607    0.0000 C   0  0  0  0  0  0  0  0  0  0  0  0
   -0.0000   -4.0607    0.0000 C   0  0  0  0  0  0  0  0  0  0  0  0
    6.4952   -6.3107    0.0000 C   0  0  0  0  0  0  0  0  0  0  0  0
    6.4952   -7.8107    0.0000 C   0  0  0  0  0  0  0  0  0  0  0  0
    7.7942   -8.5607    0.0000 C   0  0  0  0  0  0  0  0  0  0  0  0
    7.7942  -10.0607    0.0000 F   0  0  0  0  0  0  0  0  0  0  0  0
  1  2  3  0
  2  3  1  0
  3  4  2  0
  4  5  1  0
  5  6  1  0
  6  7  1  0
  7  8  1  0
  8  9  1  0
  9 10  2  0
  9 11  1  0
 11 12  1  0
 12 13  1  0
  7 14  1  0
 14 15  1  0
 14 16  1  0
 16 17  1  0
 17 18  1  0
 18 19  1  0
 19 20  1  0
 20 21  1  0
 21 22  1  0
 22 23  1  0
 20 24  1  0
 24 25  1  0
 25 26  2  0
 26 27  1  0
 27 28  2  0
 28 29  1  0
 29 30  1  0
 30 31  1  0
 30 32  1  0
 30 33  1  0
 28 34  1  0
 34 35  2  0
  5 36  2  0
 36 37  1  0
 37 38  2  0
 38 39  1  0
 38  3  1  0
 35 18  1  0
 23 20  1  0
 35 25  1  0
M  CHG  1  17   1
M  END
>  <id>  (5) 
BACE_319

>  <pic50>  (5) 
8.431798

>  <pic50_predicted>  (5) 
7.92922670465185

>  <deviation>  (5) 
0.18428546396994377

>  <pic50_predicted_optimized>  (5) 
8.113512168621794

$$$$

     RDKit          2D

 27 29  0  0  0  0  0  0  0  0999 V2000
    6.0000    0.0000    0.0000 C   0  0  0  0  0  0  0  0  0  0  0  0
    4.5000    0.0000    0.0000 C   0  0  0  0  0  0  0  0  0  0  0  0
    3.0000    0.0000    0.0000 C   0  0  0  0  0  0  0  0  0  0  0  0
    1.5000    0.0000    0.0000 C   0  0  0  0  0  0  0  0  0  0  0  0
    0.7500   -1.2990    0.0000 C   0  0  0  0  0  0  0  0  0  0  0  0
   -0.7500   -1.2990    0.0000 C   0  0  0  0  0  0  0  0  0  0  0  0
   -1.5000    0.0000    0.0000 C   0  0  0  0  0  0  0  0  0  0  0  0
   -0.7500    1.2990    0.0000 C   0  0  0  0  0  0  0  0  0  0  0  0
   -1.5000    2.5981    0.0000 C   0  0  0  0  0  0  0  0  0  0  0  0
   -0.1297    3.2082    0.0000 C   0  0  0  0  0  0  0  0  0  0  0  0
    1.0838    2.3265    0.0000 C   0  0  0  0  0  0  0  0  0  0  0  0
    2.4542    2.9366    0.0000 C   0  0  0  0  0  0  0  0  0  0  0  0
    2.6110    4.4284    0.0000 C   0  0  0  0  0  0  0  0  0  0  0  0
    3.9813    5.0385    0.0000 O   0  0  0  0  0  0  0  0  0  0  0  0
    5.1948    4.1568    0.0000 C   0  0  0  0  0  0  0  0  0  0  0  0
    6.5651    4.7669    0.0000 F   0  0  0  0  0  0  0  0  0  0  0  0
    5.0380    2.6650    0.0000 F   0  0  0  0  0  0  0  0  0  0  0  0
    1.3974    5.3101    0.0000 C   0  0  0  0  0  0  0  0  0  0  0  0
    0.0271    4.7000    0.0000 C   0  0  0  0  0  0  0  0  0  0  0  0
   -1.9635    4.0247    0.0000 N   0  0  0  0  0  0  0  0  0  0  0  0
   -3.4635    4.0247    0.0000 C   0  0  0  0  0  0  0  0  0  0  0  0
   -4.3452    5.2382    0.0000 N   0  0  0  0  0  0  0  0  0  0  0  0
   -3.9271    2.5981    0.0000 N   0  0  0  0  0  0  0  0  0  0  0  0
   -5.3536    2.1346    0.0000 C   0  0  0  0  0  0  0  0  0  0  0  0
   -2.7135    1.7164    0.0000 C   0  0  0  0  0  0  0  0  0  0  0  0
   -2.7135    0.2164    0.0000 O   0  0  0  0  0  0  0  0  0  0  0  0
    0.7500    1.2990    0.0000 C   0  0  0  0  0  0  0  0  0  0  0  0
  1  2  1  0
  2  3  3  0
  3  4  1  0
  4  5  2  0
  5  6  1  0
  6  7  2  0
  7  8  1  0
  9  8  1  6
  9 10  1  0
 10 11  2  0
 11 12  1  0
 12 13  2  0
 13 14  1  0
 14 15  1  0
 15 16  1  0
 15 17  1  0
 13 18  1  0
 18 19  2  0
  9 20  1  0
 20 21  2  0
 21 22  1  0
 21 23  1  0
 23 24  1  0
 23 25  1  0
 25 26  2  0
  8 27  2  0
 27  4  1  0
 25  9  1  0
 19 10  1  0
M  END
>  <id>  (6) 
BACE_502

>  <pic50>  (6) 
7.6989698

>  <pic50_predicted>  (6) 
7.38998675620986

>  <deviation>  (6) 
-0.06282627676429996

>  <pic50_predicted_optimized>  (6) 
7.32716047944556

$$$$

     RDKit          2D

 31 33  0  0  0  0  0  0  0  0999 V2000
    2.3638   -6.3821    0.0000 C   0  0  0  0  0  0  0  0  0  0  0  0
    1.7537   -5.0118    0.0000 N   0  0  0  0  0  0  0  0  0  0  0  0
    2.5037   -3.7128    0.0000 C   0  0  0  0  0  0  0  0  0  0  0  0
    3.9955   -3.5560    0.0000 O   0  0  0  0  0  0  0  0  0  0  0  0
    1.5000   -2.5981    0.0000 C   0  0  0  0  0  0  0  0  0  0  0  0
    0.7500   -1.2990    0.0000 C   0  0  0  0  0  0  0  0  0  0  0  0
    1.5000    0.0000    0.0000 C   0  0  0  0  0  0  0  0  0  0  0  0
    0.7500    1.2990    0.0000 C   0  0  0  0  0  0  0  0  0  0  0  0
   -0.7500    1.2990    0.0000 C   0  0  0  0  0  0  0  0  0  0  0  0
   -1.5000    2.5981    0.0000 O   0  0  0  0  0  0  0  0  0  0  0  0
   -0.7500    3.8971    0.0000 C   0  0  0  0  0  0  0  0  0  0  0  0
   -1.5000    5.1962    0.0000 F   0  0  0  0  0  0  0  0  0  0  0  0
    0.7500    3.8971    0.0000 F   0  0  0  0  0  0  0  0  0  0  0  0
   -1.5000    0.0000    0.0000 C   0  0  0  0  0  0  0  0  0  0  0  0
   -0.7500   -1.2990    0.0000 C   0  0  0  0  0  0  0  0  0  0  0  0
    2.7135   -1.7164    0.0000 C   0  0  0  0  0  0  0  0  0  0  0  0
    4.0838   -2.3265    0.0000 C   0  0  0  0  0  0  0  0  0  0  0  0
    5.2974   -1.4448    0.0000 C   0  0  0  0  0  0  0  0  0  0  0  0
    5.1406    0.0470    0.0000 C   0  0  0  0  0  0  0  0  0  0  0  0
    6.3541    0.9286    0.0000 F   0  0  0  0  0  0  0  0  0  0  0  0
    3.7703    0.6571    0.0000 C   0  0  0  0  0  0  0  0  0  0  0  0
    3.6135    2.1488    0.0000 C   0  0  0  0  0  0  0  0  0  0  0  0
    3.4567    3.6406    0.0000 C   0  0  0  0  0  0  0  0  0  0  0  0
    3.2999    5.1324    0.0000 C   0  0  0  0  0  0  0  0  0  0  0  0
    4.5134    6.0141    0.0000 C   0  0  0  0  0  0  0  0  0  0  0  0
    4.3566    7.5059    0.0000 C   0  0  0  0  0  0  0  0  0  0  0  0
    5.5701    8.3875    0.0000 F   0  0  0  0  0  0  0  0  0  0  0  0
    2.5567   -0.2246    0.0000 C   0  0  0  0  0  0  0  0  0  0  0  0
    0.1297   -3.2082    0.0000 N   0  0  0  0  0  0  0  0  0  0  0  0
    0.2865   -4.7000    0.0000 C   0  0  0  0  0  0  0  0  0  0  0  0
   -0.8282   -5.7037    0.0000 N   0  0  0  0  0  0  0  0  0  0  0  0
  1  2  1  0
  2  3  1  0
  3  4  2  0
  3  5  1  0
  5  6  1  1
  6  7  2  0
  7  8  1  0
  8  9  2  0
  9 10  1  0
 10 11  1  0
 11 12  1  0
 11 13  1  0
  9 14  1  0
 14 15  2  0
  5 16  1  0
 16 17  2  0
 17 18  1  0
 18 19  2  0
 19 20  1  0
 19 21  1  0
 21 22  1  0
 22 23  3  0
 23 24  1  0
 24 25  1  0
 25 26  1  0
 26 27  1  0
 21 28  2  0
  5 29  1  0
 29 30  2  0
 30 31  1  0
 30  2  1  0
 15  6  1  0
 28 16  1  0
M  END
>  <id>  (7) 
BACE_42

>  <pic50>  (7) 
7.8538718

>  <pic50_predicted>  (7) 
7.63919526997856

>  <deviation>  (7) 
7.528699885739343e-16

>  <pic50_predicted_optimized>  (7) 
7.639195269978561

$$$$

     RDKit          2D

 31 33  0  0  0  0  0  0  0  0999 V2000
    2.3638   -6.3821    0.0000 C   0  0  0  0  0  0  0  0  0  0  0  0
    1.7537   -5.0118    0.0000 N   0  0  0  0  0  0  0  0  0  0  0  0
    2.5037   -3.7128    0.0000 C   0  0  0  0  0  0  0  0  0  0  0  0
    3.9955   -3.5560    0.0000 O   0  0  0  0  0  0  0  0  0  0  0  0
    1.5000   -2.5981    0.0000 C   0  0  0  0  0  0  0  0  0  0  0  0
    0.7500   -1.2990    0.0000 C   0  0  0  0  0  0  0  0  0  0  0  0
    1.5000    0.0000    0.0000 C   0  0  0  0  0  0  0  0  0  0  0  0
    0.7500    1.2990    0.0000 C   0  0  0  0  0  0  0  0  0  0  0  0
   -0.7500    1.2990    0.0000 C   0  0  0  0  0  0  0  0  0  0  0  0
   -1.5000    2.5981    0.0000 O   0  0  0  0  0  0  0  0  0  0  0  0
   -0.7500    3.8971    0.0000 C   0  0  0  0  0  0  0  0  0  0  0  0
   -1.5000    5.1962    0.0000 F   0  0  0  0  0  0  0  0  0  0  0  0
    0.7500    3.8971    0.0000 F   0  0  0  0  0  0  0  0  0  0  0  0
   -1.5000    0.0000    0.0000 C   0  0  0  0  0  0  0  0  0  0  0  0
   -0.7500   -1.2990    0.0000 C   0  0  0  0  0  0  0  0  0  0  0  0
    2.7135   -1.7164    0.0000 C   0  0  0  0  0  0  0  0  0  0  0  0
    4.0838   -2.3265    0.0000 C   0  0  0  0  0  0  0  0  0  0  0  0
    5.2974   -1.4448    0.0000 C   0  0  0  0  0  0  0  0  0  0  0  0
    5.1406    0.0470    0.0000 C   0  0  0  0  0  0  0  0  0  0  0  0
    3.7703    0.6571    0.0000 C   0  0  0  0  0  0  0  0  0  0  0  0
    3.6135    2.1488    0.0000 C   0  0  0  0  0  0  0  0  0  0  0  0
    3.4567    3.6406    0.0000 C   0  0  0  0  0  0  0  0  0  0  0  0
    3.2999    5.1324    0.0000 C   0  0  0  0  0  0  0  0  0  0  0  0
    4.5134    6.0141    0.0000 C   0  0  0  0  0  0  0  0  0  0  0  0
    4.3566    7.5059    0.0000 C   0  0  0  0  0  0  0  0  0  0  0  0
    5.5701    8.3875    0.0000 C   0  0  0  0  0  0  0  0  0  0  0  0
    5.4133    9.8793    0.0000 O   0  0  0  0  0  0  0  0  0  0  0  0
    2.5567   -0.2246    0.0000 C   0  0  0  0  0  0  0  0  0  0  0  0
    0.1297   -3.2082    0.0000 N   0  0  0  0  0  0  0  0  0  0  0  0
    0.2865   -4.7000    0.0000 C   0  0  0  0  0  0  0  0  0  0  0  0
   -0.8282   -5.7037    0.0000 N   0  0  0  0  0  0  0  0  0  0  0  0
  1  2  1  0
  2  3  1  0
  3  4  2  0
  3  5  1  0
  5  6  1  1
  6  7  2  0
  7  8  1  0
  8  9  2  0
  9 10  1  0
 10 11  1  0
 11 12  1  0
 11 13  1  0
  9 14  1  0
 14 15  2  0
  5 16  1  0
 16 17  2  0
 17 18  1  0
 18 19  2  0
 19 20  1  0
 20 21  1  0
 21 22  3  0
 22 23  1  0
 23 24  1  0
 24 25  1  0
 25 26  1  0
 26 27  1  0
 20 28  2  0
  5 29  1  0
 29 30  2  0
 30 31  1  0
 30  2  1  0
 15  6  1  0
 28 16  1  0
M  END
>  <id>  (8) 
BACE_406

>  <pic50>  (8) 
8

>  <pic50_predicted>  (8) 
7.59940981727344

>  <deviation>  (8) 
1.4481866193405115e-05

>  <pic50_predicted_optimized>  (8) 
7.599424299139633

$$$$

     RDKit          2D

 28 30  0  0  0  0  0  0  0  0999 V2000
    2.3638   -6.3821    0.0000 C   0  0  0  0  0  0  0  0  0  0  0  0
    1.7537   -5.0118    0.0000 N   0  0  0  0  0  0  0  0  0  0  0  0
    2.5037   -3.7128    0.0000 C   0  0  0  0  0  0  0  0  0  0  0  0
    3.9955   -3.5560    0.0000 O   0  0  0  0  0  0  0  0  0  0  0  0
    1.5000   -2.5981    0.0000 C   0  0  0  0  0  0  0  0  0  0  0  0
    0.7500   -1.2990    0.0000 C   0  0  0  0  0  0  0  0  0  0  0  0
    1.5000    0.0000    0.0000 C   0  0  0  0  0  0  0  0  0  0  0  0
    0.7500    1.2990    0.0000 C   0  0  0  0  0  0  0  0  0  0  0  0
   -0.7500    1.2990    0.0000 C   0  0  0  0  0  0  0  0  0  0  0  0
   -1.5000    2.5981    0.0000 O   0  0  0  0  0  0  0  0  0  0  0  0
   -0.7500    3.8971    0.0000 C   0  0  0  0  0  0  0  0  0  0  0  0
   -1.5000    5.1962    0.0000 F   0  0  0  0  0  0  0  0  0  0  0  0
    0.7500    3.8971    0.0000 F   0  0  0  0  0  0  0  0  0  0  0  0
   -1.5000    0.0000    0.0000 C   0  0  0  0  0  0  0  0  0  0  0  0
   -0.7500   -1.2990    0.0000 C   0  0  0  0  0  0  0  0  0  0  0  0
    2.7135   -1.7164    0.0000 C   0  0  0  0  0  0  0  0  0  0  0  0
    4.0838   -2.3265    0.0000 C   0  0  0  0  0  0  0  0  0  0  0  0
    5.2974   -1.4448    0.0000 C   0  0  0  0  0  0  0  0  0  0  0  0
    5.1406    0.0470    0.0000 C   0  0  0  0  0  0  0  0  0  0  0  0
    3.7703    0.6571    0.0000 C   0  0  0  0  0  0  0  0  0  0  0  0
    3.6135    2.1488    0.0000 C   0  0  0  0  0  0  0  0  0  0  0  0
    3.4567    3.6406    0.0000 C   0  0  0  0  0  0  0  0  0  0  0  0
    3.2999    5.1324    0.0000 C   0  0  0  0  0  0  0  0  0  0  0  0
    4.5134    6.0141    0.0000 F   0  0  0  0  0  0  0  0  0  0  0  0
    2.5567   -0.2246    0.0000 C   0  0  0  0  0  0  0  0  0  0  0  0
    0.1297   -3.2082    0.0000 N   0  0  0  0  0  0  0  0  0  0  0  0
    0.2865   -4.7000    0.0000 C   0  0  0  0  0  0  0  0  0  0  0  0
   -0.8282   -5.7037    0.0000 N   0  0  0  0  0  0  0  0  0  0  0  0
  1  2  1  0
  2  3  1  0
  3  4  2  0
  3  5  1  0
  5  6  1  1
  6  7  2  0
  7  8  1  0
  8  9  2  0
  9 10  1  0
 10 11  1  0
 11 12  1  0
 11 13  1  0
  9 14  1  0
 14 15  2  0
  5 16  1  0
 16 17  2  0
 17 18  1  0
 18 19  2  0
 19 20  1  0
 20 21  1  0
 21 22  3  0
 22 23  1  0
 23 24  1  0
 20 25  2  0
  5 26  1  0
 26 27  2  0
 27 28  1  0
 27  2  1  0
 15  6  1  0
 25 16  1  0
M  END
>  <id>  (9) 
BACE_403

>  <pic50>  (9) 
8

>  <pic50_predicted>  (9) 
7.42610230361153

>  <deviation>  (9) 
0.006870116617202226

>  <pic50_predicted_optimized>  (9) 
7.432972420228732

$$$$

     RDKit          2D

 28 30  0  0  0  0  0  0  0  0999 V2000
    6.7500   -1.2990    0.0000 C   0  0  0  0  0  0  0  0  0  0  0  0
    6.0000    0.0000    0.0000 C   0  0  0  0  0  0  0  0  0  0  0  0
    4.5000    0.0000    0.0000 C   0  0  0  0  0  0  0  0  0  0  0  0
    3.0000    0.0000    0.0000 C   0  0  0  0  0  0  0  0  0  0  0  0
    1.5000    0.0000    0.0000 C   0  0  0  0  0  0  0  0  0  0  0  0
    0.7500   -1.2990    0.0000 C   0  0  0  0  0  0  0  0  0  0  0  0
   -0.7500   -1.2990    0.0000 C   0  0  0  0  0  0  0  0  0  0  0  0
   -1.5000    0.0000    0.0000 C   0  0  0  0  0  0  0  0  0  0  0  0
   -0.7500    1.2990    0.0000 C   0  0  0  0  0  0  0  0  0  0  0  0
   -1.5000    2.5981    0.0000 C   0  0  0  0  0  0  0  0  0  0  0  0
   -0.1297    3.2082    0.0000 C   0  0  0  0  0  0  0  0  0  0  0  0
    1.0838    2.3265    0.0000 C   0  0  0  0  0  0  0  0  0  0  0  0
    2.4542    2.9366    0.0000 C   0  0  0  0  0  0  0  0  0  0  0  0
    2.6110    4.4284    0.0000 C   0  0  0  0  0  0  0  0  0  0  0  0
    3.9813    5.0385    0.0000 O   0  0  0  0  0  0  0  0  0  0  0  0
    5.1948    4.1568    0.0000 C   0  0  0  0  0  0  0  0  0  0  0  0
    6.5651    4.7669    0.0000 F   0  0  0  0  0  0  0  0  0  0  0  0
    5.0380    2.6650    0.0000 F   0  0  0  0  0  0  0  0  0  0  0  0
    1.3974    5.3101    0.0000 C   0  0  0  0  0  0  0  0  0  0  0  0
    0.0271    4.7000    0.0000 C   0  0  0  0  0  0  0  0  0  0  0  0
   -1.9635    4.0247    0.0000 N   0  0  0  0  0  0  0  0  0  0  0  0
   -3.4635    4.0247    0.0000 C   0  0  0  0  0  0  0  0  0  0  0  0
   -4.3452    5.2382    0.0000 N   0  0  0  0  0  0  0  0  0  0  0  0
   -3.9271    2.5981    0.0000 N   0  0  0  0  0  0  0  0  0  0  0  0
   -5.3536    2.1346    0.0000 C   0  0  0  0  0  0  0  0  0  0  0  0
   -2.7135    1.7164    0.0000 C   0  0  0  0  0  0  0  0  0  0  0  0
   -2.7135    0.2164    0.0000 O   0  0  0  0  0  0  0  0  0  0  0  0
    0.7500    1.2990    0.0000 C   0  0  0  0  0  0  0  0  0  0  0  0
  1  2  1  0
  2  3  1  0
  3  4  3  0
  4  5  1  0
  5  6  2  0
  6  7  1  0
  7  8  2  0
  8  9  1  0
 10  9  1  6
 10 11  1  0
 11 12  2  0
 12 13  1  0
 13 14  2  0
 14 15  1  0
 15 16  1  0
 16 17  1  0
 16 18  1  0
 14 19  1  0
 19 20  2  0
 10 21  1  0
 21 22  2  0
 22 23  1  0
 22 24  1  0
 24 25  1  0
 24 26  1  0
 26 27  2  0
  9 28  2  0
 28  5  1  0
 26 10  1  0
 20 11  1  0
M  END
>  <id>  (10) 
BACE_650

>  <pic50>  (10) 
7.3979402

>  <pic50_predicted>  (10) 
7.49961935814656

>  <deviation>  (10) 
-0.023422259802077287

>  <pic50_predicted_optimized>  (10) 
7.476197098344483

$$$$

     RDKit          2D

 32 34  0  0  0  0  0  0  0  0999 V2000
   -3.0000   -5.1962    0.0000 C   0  0  0  0  0  0  0  0  0  0  0  0
   -1.5000   -5.1962    0.0000 C   0  0  0  0  0  0  0  0  0  0  0  0
   -0.7500   -6.4952    0.0000 O   0  0  0  0  0  0  0  0  0  0  0  0
   -0.7500   -3.8971    0.0000 N   0  0  0  0  0  0  0  0  0  0  0  0
    0.7500   -3.8971    0.0000 C   0  0  0  0  0  0  0  0  0  0  0  0
    1.5000   -2.5981    0.0000 C   0  0  0  0  0  0  0  0  0  0  0  0
    0.7500   -1.2990    0.0000 C   0  0  0  0  0  0  0  0  0  0  0  0
    1.5000    0.0000    0.0000 C   0  0  0  0  0  0  0  0  0  0  0  0
    0.7500    1.2990    0.0000 C   0  0  0  0  0  0  0  0  0  0  0  0
    1.5000    2.5981    0.0000 F   0  0  0  0  0  0  0  0  0  0  0  0
   -0.7500    1.2990    0.0000 C   0  0  0  0  0  0  0  0  0  0  0  0
   -1.5000    0.0000    0.0000 C   0  0  0  0  0  0  0  0  0  0  0  0
   -3.0000    0.0000    0.0000 F   0  0  0  0  0  0  0  0  0  0  0  0
   -0.7500   -1.2990    0.0000 C   0  0  0  0  0  0  0  0  0  0  0  0
    1.5000   -5.1962    0.0000 C   0  0  0  0  0  0  0  0  0  0  0  0
    3.0000   -5.1962    0.0000 O   0  0  0  0  0  0  0  0  0  0  0  0
    0.7500   -6.4952    0.0000 C   0  0  0  0  0  0  0  0  0  0  0  0
    1.5000   -7.7942    0.0000 N   0  0  0  0  0  4  0  0  0  0  0  0
    0.7500   -9.0933    0.0000 C   0  0  0  0  0  0  0  0  0  0  0  0
    2.1595   -9.6063    0.0000 C   0  0  0  0  0  0  0  0  0  0  0  0
    3.3086   -8.6421    0.0000 C   0  0  0  0  0  0  0  0  0  0  0  0
    4.7181   -9.1551    0.0000 C   0  0  0  0  0  0  0  0  0  0  0  0
    4.9786  -10.6324    0.0000 C   0  0  0  0  0  0  0  0  0  0  0  0
    3.8296  -11.5965    0.0000 C   0  0  0  0  0  0  0  0  0  0  0  0
    4.0900  -13.0738    0.0000 C   0  0  0  0  0  0  0  0  0  0  0  0
    4.3505  -14.5510    0.0000 N   0  0  0  0  0  0  0  0  0  0  0  0
    2.4200  -11.0835    0.0000 C   0  0  0  0  0  0  0  0  0  0  0  0
   -0.3991   -8.1291    0.0000 C   0  0  0  0  0  0  0  0  0  0  0  0
   -1.8086   -8.6421    0.0000 C   0  0  0  0  0  0  0  0  0  0  0  0
   -2.0691  -10.1193    0.0000 C   0  0  0  0  0  0  0  0  0  0  0  0
   -0.9200  -11.0835    0.0000 C   0  0  0  0  0  0  0  0  0  0  0  0
    0.4895  -10.5705    0.0000 C   0  0  0  0  0  0  0  0  0  0  0  0
  1  2  1  0
  2  3  2  0
  2  4  1  0
  4  5  1  0
  5  6  1  0
  6  7  1  0
  7  8  2  0
  8  9  1  0
  9 10  1  0
  9 11  2  0
 11 12  1  0
 12 13  1  0
 12 14  2  0
  5 15  1  0
 15 16  1  0
 15 17  1  0
 17 18  1  0
 18 19  1  0
 19 20  1  0
 20 21  2  0
 21 22  1  0
 22 23  2  0
 23 24  1  0
 24 25  1  0
 25 26  3  0
 24 27  2  0
 19 28  1  0
 28 29  1  0
 29 30  1  0
 30 31  1  0
 31 32  1  0
 14  7  1  0
 32 19  1  0
 27 20  1  0
M  CHG  1  18   1
M  END
>  <id>  (11) 
BACE_1313

>  <pic50>  (11) 
5.2076082

>  <pic50_predicted>  (11) 
6.21884869308738

>  <deviation>  (11) 
-0.01914585640928403

>  <pic50_predicted_optimized>  (11) 
6.199702836678096

$$$$

     RDKit          2D

 26 28  0  0  0  0  0  0  0  0999 V2000
    2.6491   -1.6339    0.0000 C   0  0  0  0  0  0  0  0  0  0  0  0
    1.5000   -2.5981    0.0000 C   0  0  0  0  0  0  0  0  0  0  0  0
    0.7500   -1.2990    0.0000 C   0  0  0  0  0  0  0  0  0  0  0  0
    1.5000    0.0000    0.0000 C   0  0  0  0  0  0  0  0  0  0  0  0
    0.7500    1.2990    0.0000 C   0  0  0  0  0  0  0  0  0  0  0  0
    1.5000    2.5981    0.0000 N   0  0  0  0  0  0  0  0  0  0  0  0
    3.0000    2.5981    0.0000 C   0  0  0  0  0  0  0  0  0  0  0  0
    3.7500    1.2990    0.0000 O   0  0  0  0  0  0  0  0  0  0  0  0
    3.7500    3.8971    0.0000 C   0  0  0  0  0  0  0  0  0  0  0  0
    5.2500    3.8971    0.0000 N   0  0  0  0  0  0  0  0  0  0  0  0
    6.0000    5.1962    0.0000 C   0  0  0  0  0  0  0  0  0  0  0  0
    5.2500    6.4952    0.0000 C   0  0  0  0  0  0  0  0  0  0  0  0
    6.0000    7.7942    0.0000 Cl  0  0  0  0  0  0  0  0  0  0  0  0
    3.7500    6.4952    0.0000 C   0  0  0  0  0  0  0  0  0  0  0  0
    3.0000    5.1962    0.0000 C   0  0  0  0  0  0  0  0  0  0  0  0
    1.5000    5.1962    0.0000 Cl  0  0  0  0  0  0  0  0  0  0  0  0
   -0.7500    1.2990    0.0000 C   0  0  0  0  0  0  0  0  0  0  0  0
   -1.5000    0.0000    0.0000 C   0  0  0  0  0  0  0  0  0  0  0  0
   -0.7500   -1.2990    0.0000 C   0  0  0  0  0  0  0  0  0  0  0  0
   -1.5000   -2.5981    0.0000 F   0  0  0  0  0  0  0  0  0  0  0  0
    0.0905   -3.1111    0.0000 C   0  0  0  0  0  0  0  0  0  0  0  0
   -0.1700   -4.5883    0.0000 C   0  0  0  0  0  0  0  0  0  0  0  0
    0.9791   -5.5525    0.0000 O   0  0  0  0  0  0  0  0  0  0  0  0
    2.3886   -5.0395    0.0000 C   0  0  0  0  0  0  0  0  0  0  0  0
    3.5377   -6.0037    0.0000 N   0  0  0  0  0  0  0  0  0  0  0  0
    2.6491   -3.5623    0.0000 N   0  0  0  0  0  0  0  0  0  0  0  0
  1  2  1  0
  2  3  1  0
  3  4  2  0
  4  5  1  0
  5  6  1  0
  6  7  1  0
  7  8  2  0
  7  9  1  0
  9 10  2  0
 10 11  1  0
 11 12  2  0
 12 13  1  0
 12 14  1  0
 14 15  2  0
 15 16  1  0
  5 17  2  0
 17 18  1  0
 18 19  2  0
 19 20  1  0
  2 21  1  0
 21 22  1  0
 22 23  1  0
 23 24  1  0
 24 25  1  0
 24 26  2  0
 26  2  1  0
 19  3  1  0
 15  9  1  0
M  END
>  <id>  (12) 
BACE_639

>  <pic50>  (12) 
7.4089355

>  <pic50_predicted>  (12) 
7.42214610331601

>  <deviation>  (12) 
-0.2618496472954345

>  <pic50_predicted_optimized>  (12) 
7.160296456020575

$$$$

     RDKit          2D

 27 29  0  0  0  0  0  0  0  0999 V2000
    2.6491   -1.6339    0.0000 C   0  0  0  0  0  0  0  0  0  0  0  0
    1.5000   -2.5981    0.0000 C   0  0  0  0  0  0  0  0  0  0  0  0
    0.7500   -1.2990    0.0000 C   0  0  0  0  0  0  0  0  0  0  0  0
    1.5000    0.0000    0.0000 C   0  0  0  0  0  0  0  0  0  0  0  0
    0.7500    1.2990    0.0000 C   0  0  0  0  0  0  0  0  0  0  0  0
    1.5000    2.5981    0.0000 N   0  0  0  0  0  0  0  0  0  0  0  0
    3.0000    2.5981    0.0000 C   0  0  0  0  0  0  0  0  0  0  0  0
    3.7500    1.2990    0.0000 O   0  0  0  0  0  0  0  0  0  0  0  0
    3.7500    3.8971    0.0000 C   0  0  0  0  0  0  0  0  0  0  0  0
    5.2500    3.8971    0.0000 C   0  0  0  0  0  0  0  0  0  0  0  0
    6.0000    5.1962    0.0000 C   0  0  0  0  0  0  0  0  0  0  0  0
    5.2500    6.4952    0.0000 C   0  0  0  0  0  0  0  0  0  0  0  0
    6.0000    7.7942    0.0000 Cl  0  0  0  0  0  0  0  0  0  0  0  0
    3.7500    6.4952    0.0000 C   0  0  0  0  0  0  0  0  0  0  0  0
    3.0000    5.1962    0.0000 N   0  0  0  0  0  0  0  0  0  0  0  0
   -0.7500    1.2990    0.0000 C   0  0  0  0  0  0  0  0  0  0  0  0
   -1.5000    0.0000    0.0000 C   0  0  0  0  0  0  0  0  0  0  0  0
   -0.7500   -1.2990    0.0000 C   0  0  0  0  0  0  0  0  0  0  0  0
   -1.5000   -2.5981    0.0000 F   0  0  0  0  0  0  0  0  0  0  0  0
    0.0905   -3.1111    0.0000 N   0  0  0  0  0  0  0  0  0  0  0  0
   -0.1700   -4.5883    0.0000 C   0  0  0  0  0  0  0  0  0  0  0  0
   -1.5796   -5.1013    0.0000 N   0  0  0  0  0  0  0  0  0  0  0  0
    0.9791   -5.5525    0.0000 O   0  0  0  0  0  0  0  0  0  0  0  0
    2.3886   -5.0395    0.0000 C   0  0  0  0  0  0  0  0  0  0  0  0
    2.6491   -3.5623    0.0000 C   0  0  0  0  0  0  0  0  0  0  0  0
    3.3991   -2.2632    0.0000 F   0  0  0  0  0  0  0  0  0  0  0  0
    4.0586   -4.0753    0.0000 F   0  0  0  0  0  0  0  0  0  0  0  0
  1  2  1  0
  2  3  1  0
  3  4  2  0
  4  5  1  0
  5  6  1  0
  6  7  1  0
  7  8  2  0
  7  9  1  0
  9 10  2  0
 10 11  1  0
 11 12  2  0
 12 13  1  0
 12 14  1  0
 14 15  2  0
  5 16  2  0
 16 17  1  0
 17 18  2  0
 18 19  1  0
  2 20  1  0
 20 21  2  0
 21 22  1  0
 21 23  1  0
 23 24  1  0
 24 25  1  0
 25 26  1  0
 25 27  1  0
 25  2  1  0
 18  3  1  0
 15  9  1  0
M  END
>  <id>  (13) 
BACE_558

>  <pic50>  (13) 
7.5850267

>  <pic50_predicted>  (13) 
6.99448290608053

>  <deviation>  (13) 
0.03719792859815709

>  <pic50_predicted_optimized>  (13) 
7.031680834678688

$$$$

     RDKit          2D

 28 30  0  0  0  0  0  0  0  0999 V2000
    2.6491   -1.6339    0.0000 C   0  0  0  0  0  0  0  0  0  0  0  0
    1.5000   -2.5981    0.0000 C   0  0  0  0  0  0  0  0  0  0  0  0
    0.7500   -1.2990    0.0000 C   0  0  0  0  0  0  0  0  0  0  0  0
    1.5000    0.0000    0.0000 C   0  0  0  0  0  0  0  0  0  0  0  0
    0.7500    1.2990    0.0000 C   0  0  0  0  0  0  0  0  0  0  0  0
    1.5000    2.5981    0.0000 N   0  0  0  0  0  0  0  0  0  0  0  0
    3.0000    2.5981    0.0000 C   0  0  0  0  0  0  0  0  0  0  0  0
    3.7500    1.2990    0.0000 O   0  0  0  0  0  0  0  0  0  0  0  0
    3.7500    3.8971    0.0000 C   0  0  0  0  0  0  0  0  0  0  0  0
    5.2500    3.8971    0.0000 N   0  0  0  0  0  0  0  0  0  0  0  0
    6.0000    5.1962    0.0000 C   0  0  0  0  0  0  0  0  0  0  0  0
    5.2500    6.4952    0.0000 C   0  0  0  0  0  0  0  0  0  0  0  0
    6.0000    7.7942    0.0000 Cl  0  0  0  0  0  0  0  0  0  0  0  0
    3.7500    6.4952    0.0000 C   0  0  0  0  0  0  0  0  0  0  0  0
    3.0000    5.1962    0.0000 C   0  0  0  0  0  0  0  0  0  0  0  0
    1.5000    5.1962    0.0000 Cl  0  0  0  0  0  0  0  0  0  0  0  0
   -0.7500    1.2990    0.0000 C   0  0  0  0  0  0  0  0  0  0  0  0
   -1.5000    0.0000    0.0000 C   0  0  0  0  0  0  0  0  0  0  0  0
   -0.7500   -1.2990    0.0000 C   0  0  0  0  0  0  0  0  0  0  0  0
   -1.5000   -2.5981    0.0000 F   0  0  0  0  0  0  0  0  0  0  0  0
    0.0905   -3.1111    0.0000 N   0  0  0  0  0  0  0  0  0  0  0  0
   -0.1700   -4.5883    0.0000 C   0  0  0  0  0  0  0  0  0  0  0  0
   -1.5796   -5.1013    0.0000 N   0  0  0  0  0  0  0  0  0  0  0  0
    0.9791   -5.5525    0.0000 O   0  0  0  0  0  0  0  0  0  0  0  0
    2.3886   -5.0395    0.0000 C   0  0  0  0  0  0  0  0  0  0  0  0
    2.6491   -3.5623    0.0000 C   0  0  0  0  0  0  0  0  0  0  0  0
    3.3991   -2.2632    0.0000 F   0  0  0  0  0  0  0  0  0  0  0  0
    4.0586   -4.0753    0.0000 F   0  0  0  0  0  0  0  0  0  0  0  0
  1  2  1  0
  2  3  1  0
  3  4  2  0
  4  5  1  0
  5  6  1  0
  6  7  1  0
  7  8  2  0
  7  9  1  0
  9 10  2  0
 10 11  1  0
 11 12  2  0
 12 13  1  0
 12 14  1  0
 14 15  2  0
 15 16  1  0
  5 17  2  0
 17 18  1  0
 18 19  2  0
 19 20  1  0
  2 21  1  0
 21 22  2  0
 22 23  1  0
 22 24  1  0
 24 25  1  0
 25 26  1  0
 26 27  1  0
 26 28  1  0
 26  2  1  0
 19  3  1  0
 15  9  1  0
M  END
>  <id>  (14) 
BACE_559

>  <pic50>  (14) 
7.5850267

>  <pic50_predicted>  (14) 
7.29130937220213

>  <deviation>  (14) 
0.029198268497740064

>  <pic50_predicted_optimized>  (14) 
7.320507640699869

$$$$

     RDKit          2D

 27 29  0  0  0  0  0  0  0  0999 V2000
    1.8478   -9.0619    0.0000 C   0  0  0  0  0  0  0  0  0  0  0  0
    2.0046   -7.5702    0.0000 N   0  0  0  0  0  0  0  0  0  0  0  0
    3.3037   -6.8202    0.0000 C   0  0  0  0  0  0  0  0  0  0  0  0
    2.9918   -5.3529    0.0000 C   0  0  0  0  0  0  0  0  0  0  0  0
    3.9955   -4.2382    0.0000 Cl  0  0  0  0  0  0  0  0  0  0  0  0
    1.5000   -5.1962    0.0000 C   0  0  0  0  0  0  0  0  0  0  0  0
    0.7500   -3.8971    0.0000 C   0  0  0  0  0  0  0  0  0  0  0  0
   -0.7500   -3.8971    0.0000 O   0  0  0  0  0  0  0  0  0  0  0  0
    1.5000   -2.5981    0.0000 N   0  0  0  0  0  0  0  0  0  0  0  0
    0.7500   -1.2990    0.0000 C   0  0  0  0  0  0  0  0  0  0  0  0
    1.5000    0.0000    0.0000 C   0  0  0  0  0  0  0  0  0  0  0  0
    0.7500    1.2990    0.0000 C   0  0  0  0  0  0  0  0  0  0  0  0
   -0.7500    1.2990    0.0000 C   0  0  0  0  0  0  0  0  0  0  0  0
   -1.5000    2.5981    0.0000 F   0  0  0  0  0  0  0  0  0  0  0  0
   -1.5000    0.0000    0.0000 C   0  0  0  0  0  0  0  0  0  0  0  0
   -3.0000    0.0000    0.0000 C   0  0  0  0  0  0  0  0  0  0  0  0
   -2.7395   -1.4772    0.0000 C   0  0  0  0  0  0  0  0  0  0  0  0
   -2.7395    1.4772    0.0000 N   0  0  0  0  0  0  0  0  0  0  0  0
   -3.8886    2.4414    0.0000 C   0  0  0  0  0  0  0  0  0  0  0  0
   -3.6281    3.9186    0.0000 N   0  0  0  0  0  0  0  0  0  0  0  0
   -5.2981    1.9284    0.0000 O   0  0  0  0  0  0  0  0  0  0  0  0
   -5.5586    0.4512    0.0000 C   0  0  0  0  0  0  0  0  0  0  0  0
   -4.4095   -0.5130    0.0000 C   0  0  0  0  0  0  0  0  0  0  0  0
   -3.6595   -1.8121    0.0000 F   0  0  0  0  0  0  0  0  0  0  0  0
   -5.5586   -1.4772    0.0000 F   0  0  0  0  0  0  0  0  0  0  0  0
   -0.7500   -1.2990    0.0000 C   0  0  0  0  0  0  0  0  0  0  0  0
    0.8899   -6.5665    0.0000 N   0  0  0  0  0  0  0  0  0  0  0  0
  1  2  1  0
  2  3  1  0
  3  4  2  0
  4  5  1  0
  4  6  1  0
  6  7  1  0
  7  8  2  0
  7  9  1  0
  9 10  1  0
 10 11  2  0
 11 12  1  0
 12 13  2  0
 13 14  1  0
 13 15  1  0
 15 16  1  0
 16 17  1  0
 16 18  1  0
 18 19  2  0
 19 20  1  0
 19 21  1  0
 21 22  1  0
 22 23  1  0
 23 24  1  0
 23 25  1  0
 15 26  2  0
  6 27  2  0
 27  2  1  0
 26 10  1  0
 23 16  1  0
M  END
>  <id>  (15) 
BACE_888

>  <pic50>  (15) 
6.821023

>  <pic50_predicted>  (15) 
7.40732329447511

>  <deviation>  (15) 
0.004426413139724524

>  <pic50_predicted_optimized>  (15) 
7.411749707614835

$$$$

     RDKit          2D

 28 31  0  0  0  0  0  0  0  0999 V2000
    2.3638   -6.3821    0.0000 C   0  0  0  0  0  0  0  0  0  0  0  0
    1.7537   -5.0118    0.0000 N   0  0  0  0  0  0  0  0  0  0  0  0
    2.5037   -3.7128    0.0000 C   0  0  0  0  0  0  0  0  0  0  0  0
    3.9955   -3.5560    0.0000 O   0  0  0  0  0  0  0  0  0  0  0  0
    1.5000   -2.5981    0.0000 C   0  0  0  0  0  0  0  0  0  0  0  0
    0.7500   -1.2990    0.0000 C   0  0  0  0  0  0  0  0  0  0  0  0
    1.5000    0.0000    0.0000 C   0  0  0  0  0  0  0  0  0  0  0  0
    0.7500    1.2990    0.0000 C   0  0  0  0  0  0  0  0  0  0  0  0
   -0.7500    1.2990    0.0000 C   0  0  0  0  0  0  0  0  0  0  0  0
   -1.5000    0.0000    0.0000 C   0  0  0  0  0  0  0  0  0  0  0  0
   -3.0000    0.0000    0.0000 N   0  0  0  0  0  0  0  0  0  0  0  0
   -3.7500    1.2990    0.0000 C   0  0  0  0  0  0  0  0  0  0  0  0
   -3.0000    2.5981    0.0000 O   0  0  0  0  0  0  0  0  0  0  0  0
   -5.2500    1.2990    0.0000 C   0  0  0  0  0  0  0  0  0  0  0  0
   -6.1317    0.0855    0.0000 C   0  0  0  0  0  0  0  0  0  0  0  0
   -7.5583    0.5490    0.0000 C   0  0  0  0  0  0  0  0  0  0  0  0
   -7.5583    2.0490    0.0000 C   0  0  0  0  0  0  0  0  0  0  0  0
   -6.1317    2.5126    0.0000 O   0  0  0  0  0  0  0  0  0  0  0  0
   -0.7500   -1.2990    0.0000 C   0  0  0  0  0  0  0  0  0  0  0  0
    2.7135   -1.7164    0.0000 C   0  0  0  0  0  0  0  0  0  0  0  0
    4.0838   -2.3265    0.0000 C   0  0  0  0  0  0  0  0  0  0  0  0
    5.2974   -1.4448    0.0000 C   0  0  0  0  0  0  0  0  0  0  0  0
    5.1406    0.0470    0.0000 C   0  0  0  0  0  0  0  0  0  0  0  0
    3.7703    0.6571    0.0000 C   0  0  0  0  0  0  0  0  0  0  0  0
    2.5567   -0.2246    0.0000 C   0  0  0  0  0  0  0  0  0  0  0  0
    0.1297   -3.2082    0.0000 N   0  0  0  0  0  0  0  0  0  0  0  0
    0.2865   -4.7000    0.0000 C   0  0  0  0  0  0  0  0  0  0  0  0
   -0.8282   -5.7037    0.0000 N   0  0  0  0  0  0  0  0  0  0  0  0
  1  2  1  0
  2  3  1  0
  3  4  2  0
  3  5  1  0
  5  6  1  0
  6  7  2  0
  7  8  1  0
  8  9  2  0
  9 10  1  0
 10 11  1  0
 11 12  1  0
 12 13  2  0
 12 14  1  0
 14 15  2  0
 15 16  1  0
 16 17  2  0
 17 18  1  0
 10 19  2  0
  5 20  1  0
 20 21  1  0
 21 22  1  0
 22 23  1  0
 23 24  1  0
 24 25  1  0
  5 26  1  0
 26 27  2  0
 27 28  1  0
 27  2  1  0
 19  6  1  0
 25 20  1  0
 18 14  1  0
M  END
>  <id>  (16) 
BACE_819

>  <pic50>  (16) 
7

>  <pic50_predicted>  (16) 
6.30687049773614

>  <deviation>  (16) 
-0.08799378314468101

>  <pic50_predicted_optimized>  (16) 
6.21887671459146

$$$$

     RDKit          2D

 27 29  0  0  0  0  0  0  0  0999 V2000
  -10.9664   -3.4354    0.0000 C   0  0  0  0  0  0  0  0  0  0  0  0
   -9.9627   -4.5501    0.0000 C   0  0  0  0  0  0  0  0  0  0  0  0
   -8.4955   -4.2382    0.0000 C   0  0  0  0  0  0  0  0  0  0  0  0
   -7.4918   -5.3529    0.0000 C   0  0  0  0  0  0  0  0  0  0  0  0
   -7.8037   -6.8202    0.0000 C   0  0  0  0  0  0  0  0  0  0  0  0
   -6.5046   -7.5702    0.0000 S   0  0  0  0  0  0  0  0  0  0  0  0
   -5.3899   -6.5665    0.0000 C   0  0  0  0  0  0  0  0  0  0  0  0
   -6.0000   -5.1962    0.0000 C   0  0  0  0  0  0  0  0  0  0  0  0
   -5.2500   -3.8971    0.0000 C   0  0  0  0  0  0  0  0  0  0  0  0
   -3.7500   -3.8971    0.0000 C   0  0  0  0  0  0  0  0  0  0  0  0
   -3.0000   -2.5981    0.0000 N   0  0  0  0  0  0  0  0  0  0  0  0
   -1.5000   -2.5981    0.0000 C   0  0  0  0  0  0  0  0  0  0  0  0
   -0.7500   -3.8971    0.0000 N   0  0  0  0  0  0  0  0  0  0  0  0
    0.7500   -3.8971    0.0000 C   0  0  0  0  0  0  0  0  0  0  0  0
    2.1595   -4.4101    0.0000 C   0  0  0  0  0  0  0  0  0  0  0  0
    0.4895   -5.3743    0.0000 C   0  0  0  0  0  0  0  0  0  0  0  0
    1.5000   -2.5981    0.0000 C   0  0  0  0  0  0  0  0  0  0  0  0
    0.7500   -1.2990    0.0000 C   0  0  0  0  0  0  0  0  0  0  0  0
    1.5000    0.0000    0.0000 C   0  0  0  0  0  0  0  0  0  0  0  0
    0.7500    1.2990    0.0000 C   0  0  0  0  0  0  0  0  0  0  0  0
    1.5000    2.5981    0.0000 Cl  0  0  0  0  0  0  0  0  0  0  0  0
   -0.7500    1.2990    0.0000 C   0  0  0  0  0  0  0  0  0  0  0  0
   -1.5000    0.0000    0.0000 C   0  0  0  0  0  0  0  0  0  0  0  0
   -0.7500   -1.2990    0.0000 C   0  0  0  0  0  0  0  0  0  0  0  0
   -3.0000   -5.1962    0.0000 C   0  0  0  0  0  0  0  0  0  0  0  0
   -1.5000   -5.1962    0.0000 O   0  0  0  0  0  0  0  0  0  0  0  0
   -3.7500   -6.4952    0.0000 O   0  0  0  0  0  1  0  0  0  0  0  0
  1  2  1  0
  2  3  1  0
  3  4  1  0
  4  5  2  0
  5  6  1  0
  6  7  1  0
  7  8  2  0
  8  9  1  0
  9 10  1  0
 10 11  1  0
 11 12  1  0
 12 13  2  0
 13 14  1  0
 14 15  1  0
 14 16  1  0
 14 17  1  0
 17 18  1  0
 18 19  2  0
 19 20  1  0
 20 21  1  0
 20 22  2  0
 22 23  1  0
 23 24  2  0
 10 25  1  0
 25 26  2  0
 25 27  1  0
  8  4  1  0
 24 12  1  0
 24 18  1  0
M  CHG  1  27  -1
M  END
>  <id>  (17) 
BACE_1058

>  <pic50>  (17) 
6.2146702

>  <pic50_predicted>  (17) 
6.09481867156069

>  <deviation>  (17) 
0.013630268310882413

>  <pic50_predicted_optimized>  (17) 
6.108448939871572

$$$$

     RDKit          2D

 26 28  0  0  0  0  0  0  0  0999 V2000
   -9.9627   -4.5501    0.0000 C   0  0  0  0  0  0  0  0  0  0  0  0
   -8.4955   -4.2382    0.0000 C   0  0  0  0  0  0  0  0  0  0  0  0
   -7.4918   -5.3529    0.0000 C   0  0  0  0  0  0  0  0  0  0  0  0
   -7.8037   -6.8202    0.0000 C   0  0  0  0  0  0  0  0  0  0  0  0
   -6.5046   -7.5702    0.0000 S   0  0  0  0  0  0  0  0  0  0  0  0
   -5.3899   -6.5665    0.0000 C   0  0  0  0  0  0  0  0  0  0  0  0
   -6.0000   -5.1962    0.0000 C   0  0  0  0  0  0  0  0  0  0  0  0
   -5.2500   -3.8971    0.0000 C   0  0  0  0  0  0  0  0  0  0  0  0
   -3.7500   -3.8971    0.0000 C   0  0  0  0  0  0  0  0  0  0  0  0
   -3.0000   -2.5981    0.0000 N   0  0  0  0  0  0  0  0  0  0  0  0
   -1.5000   -2.5981    0.0000 C   0  0  0  0  0  0  0  0  0  0  0  0
   -0.7500   -3.8971    0.0000 N   0  0  0  0  0  0  0  0  0  0  0  0
    0.7500   -3.8971    0.0000 C   0  0  0  0  0  0  0  0  0  0  0  0
    2.1595   -4.4101    0.0000 C   0  0  0  0  0  0  0  0  0  0  0  0
    0.4895   -5.3743    0.0000 C   0  0  0  0  0  0  0  0  0  0  0  0
    1.5000   -2.5981    0.0000 C   0  0  0  0  0  0  0  0  0  0  0  0
    0.7500   -1.2990    0.0000 C   0  0  0  0  0  0  0  0  0  0  0  0
    1.5000    0.0000    0.0000 C   0  0  0  0  0  0  0  0  0  0  0  0
    0.7500    1.2990    0.0000 C   0  0  0  0  0  0  0  0  0  0  0  0
    1.5000    2.5981    0.0000 Cl  0  0  0  0  0  0  0  0  0  0  0  0
   -0.7500    1.2990    0.0000 C   0  0  0  0  0  0  0  0  0  0  0  0
   -1.5000    0.0000    0.0000 C   0  0  0  0  0  0  0  0  0  0  0  0
   -0.7500   -1.2990    0.0000 C   0  0  0  0  0  0  0  0  0  0  0  0
   -3.0000   -5.1962    0.0000 C   0  0  0  0  0  0  0  0  0  0  0  0
   -1.5000   -5.1962    0.0000 O   0  0  0  0  0  0  0  0  0  0  0  0
   -3.7500   -6.4952    0.0000 O   0  0  0  0  0  1  0  0  0  0  0  0
  1  2  1  0
  2  3  1  0
  3  4  2  0
  4  5  1  0
  5  6  1  0
  6  7  2  0
  7  8  1  0
  8  9  1  0
  9 10  1  0
 10 11  1  0
 11 12  2  0
 12 13  1  0
 13 14  1  0
 13 15  1  0
 13 16  1  0
 16 17  1  0
 17 18  2  0
 18 19  1  0
 19 20  1  0
 19 21  2  0
 21 22  1  0
 22 23  2  0
  9 24  1  0
 24 25  2  0
 24 26  1  0
  7  3  1  0
 23 11  1  0
 23 17  1  0
M  CHG  1  26  -1
M  END
>  <id>  (18) 
BACE_1061

>  <pic50>  (18) 
6.2006593

>  <pic50_predicted>  (18) 
6.11211744649715

>  <deviation>  (18) 
-0.008192246670699645

>  <pic50_predicted_optimized>  (18) 
6.10392519982645

$$$$

     RDKit          2D

 32 35  0  0  0  0  0  0  0  0999 V2000
   -1.9919    0.8226    0.0000 C   0  0  0  0  0  0  0  0  0  0  0  0
   -3.4591    0.5107    0.0000 C   0  0  0  0  0  0  0  0  0  0  0  0
   -3.9227   -0.9159    0.0000 C   0  0  0  0  0  0  0  0  0  0  0  0
   -5.3899   -1.2278    0.0000 C   0  0  0  0  0  0  0  0  0  0  0  0
   -6.5046   -0.2241    0.0000 S   0  0  0  0  0  0  0  0  0  0  0  0
   -7.8037   -0.9741    0.0000 C   0  0  0  0  0  0  0  0  0  0  0  0
   -7.4918   -2.4413    0.0000 C   0  0  0  0  0  0  0  0  0  0  0  0
   -8.4955   -3.5560    0.0000 C   0  0  0  0  0  0  0  0  0  0  0  0
   -8.1836   -5.0232    0.0000 C   0  0  0  0  0  0  0  0  0  0  0  0
   -9.4826   -5.7732    0.0000 N   0  0  0  0  0  0  0  0  0  0  0  0
  -10.5974   -4.7695    0.0000 N   0  0  0  0  0  0  0  0  0  0  0  0
   -9.9873   -3.3992    0.0000 C   0  0  0  0  0  0  0  0  0  0  0  0
   -6.0000   -2.5981    0.0000 C   0  0  0  0  0  0  0  0  0  0  0  0
   -5.2500   -3.8971    0.0000 C   0  0  0  0  0  0  0  0  0  0  0  0
   -3.7500   -3.8971    0.0000 C   0  0  0  0  0  0  0  0  0  0  0  0
   -3.0000   -2.5981    0.0000 N   0  0  0  0  0  0  0  0  0  0  0  0
   -1.5000   -2.5981    0.0000 C   0  0  0  0  0  0  0  0  0  0  0  0
   -0.7500   -3.8971    0.0000 N   0  0  0  0  0  0  0  0  0  0  0  0
    0.7500   -3.8971    0.0000 C   0  0  0  0  0  0  0  0  0  0  0  0
    2.1595   -4.4101    0.0000 C   0  0  0  0  0  0  0  0  0  0  0  0
    0.4895   -5.3743    0.0000 C   0  0  0  0  0  0  0  0  0  0  0  0
    1.5000   -2.5981    0.0000 C   0  0  0  0  0  0  0  0  0  0  0  0
    0.7500   -1.2990    0.0000 C   0  0  0  0  0  0  0  0  0  0  0  0
    1.5000    0.0000    0.0000 C   0  0  0  0  0  0  0  0  0  0  0  0
    0.7500    1.2990    0.0000 C   0  0  0  0  0  0  0  0  0  0  0  0
    1.5000    2.5981    0.0000 Cl  0  0  0  0  0  0  0  0  0  0  0  0
   -0.7500    1.2990    0.0000 C   0  0  0  0  0  0  0  0  0  0  0  0
   -1.5000    0.0000    0.0000 C   0  0  0  0  0  0  0  0  0  0  0  0
   -0.7500   -1.2990    0.0000 C   0  0  0  0  0  0  0  0  0  0  0  0
   -3.0000   -5.1962    0.0000 C   0  0  0  0  0  0  0  0  0  0  0  0
   -1.5000   -5.1962    0.0000 O   0  0  0  0  0  0  0  0  0  0  0  0
   -3.7500   -6.4952    0.0000 O   0  0  0  0  0  1  0  0  0  0  0  0
  1  2  1  0
  2  3  1  0
  3  4  1  0
  4  5  1  0
  5  6  1  0
  6  7  2  0
  7  8  1  0
  8  9  1  0
  9 10  2  0
 10 11  1  0
 11 12  1  0
  7 13  1  0
 13 14  1  0
 14 15  1  0
 15 16  1  0
 16 17  1  0
 17 18  2  0
 18 19  1  0
 19 20  1  0
 19 21  1  0
 19 22  1  0
 22 23  1  0
 23 24  2  0
 24 25  1  0
 25 26  1  0
 25 27  2  0
 27 28  1  0
 28 29  2  0
 15 30  1  0
 30 31  2  0
 30 32  1  0
 13  4  2  0
 29 17  1  0
 12  8  2  0
 29 23  1  0
M  CHG  1  32  -1
M  END
>  <id>  (19) 
BACE_375

>  <pic50>  (19) 
8.0969095

>  <pic50_predicted>  (19) 
6.66406032059233

>  <deviation>  (19) 
0.006815134155439708

>  <pic50_predicted_optimized>  (19) 
6.67087545474777

$$$$

     RDKit          2D

 27 29  0  0  0  0  0  0  0  0999 V2000
  -10.9664   -3.4354    0.0000 C   0  0  0  0  0  0  0  0  0  0  0  0
   -9.9627   -4.5501    0.0000 C   0  0  0  0  0  0  0  0  0  0  0  0
   -8.4955   -4.2382    0.0000 C   0  0  0  0  0  0  0  0  0  0  0  0
   -7.4918   -5.3529    0.0000 C   0  0  0  0  0  0  0  0  0  0  0  0
   -7.8037   -6.8202    0.0000 C   0  0  0  0  0  0  0  0  0  0  0  0
   -6.5046   -7.5702    0.0000 S   0  0  0  0  0  0  0  0  0  0  0  0
   -5.3899   -6.5665    0.0000 C   0  0  0  0  0  0  0  0  0  0  0  0
   -6.0000   -5.1962    0.0000 C   0  0  0  0  0  0  0  0  0  0  0  0
   -5.2500   -3.8971    0.0000 C   0  0  0  0  0  0  0  0  0  0  0  0
   -3.7500   -3.8971    0.0000 C   0  0  0  0  0  0  0  0  0  0  0  0
   -3.0000   -2.5981    0.0000 N   0  0  0  0  0  0  0  0  0  0  0  0
   -1.5000   -2.5981    0.0000 C   0  0  0  0  0  0  0  0  0  0  0  0
   -0.7500   -3.8971    0.0000 N   0  0  0  0  0  4  0  0  0  0  0  0
    0.7500   -3.8971    0.0000 C   0  0  0  0  0  0  0  0  0  0  0  0
    2.1595   -4.4101    0.0000 C   0  0  0  0  0  0  0  0  0  0  0  0
    0.4895   -5.3743    0.0000 C   0  0  0  0  0  0  0  0  0  0  0  0
    1.5000   -2.5981    0.0000 C   0  0  0  0  0  0  0  0  0  0  0  0
    0.7500   -1.2990    0.0000 C   0  0  0  0  0  0  0  0  0  0  0  0
    1.5000    0.0000    0.0000 C   0  0  0  0  0  0  0  0  0  0  0  0
    0.7500    1.2990    0.0000 C   0  0  0  0  0  0  0  0  0  0  0  0
    1.5000    2.5981    0.0000 Cl  0  0  0  0  0  0  0  0  0  0  0  0
   -0.7500    1.2990    0.0000 C   0  0  0  0  0  0  0  0  0  0  0  0
   -1.5000    0.0000    0.0000 C   0  0  0  0  0  0  0  0  0  0  0  0
   -0.7500   -1.2990    0.0000 C   0  0  0  0  0  0  0  0  0  0  0  0
   -3.0000   -5.1962    0.0000 C   0  0  0  0  0  0  0  0  0  0  0  0
   -1.5000   -5.1962    0.0000 O   0  0  0  0  0  0  0  0  0  0  0  0
   -3.7500   -6.4952    0.0000 O   0  0  0  0  0  1  0  0  0  0  0  0
  1  2  1  0
  2  3  1  0
  3  4  1  0
  4  5  2  0
  5  6  1  0
  6  7  1  0
  7  8  2  0
  8  9  1  0
 10  9  1  6
 10 11  1  0
 11 12  1  0
 12 13  2  0
 13 14  1  0
 14 15  1  0
 14 16  1  0
 14 17  1  0
 17 18  1  0
 18 19  2  0
 19 20  1  0
 20 21  1  0
 20 22  2  0
 22 23  1  0
 23 24  2  0
 10 25  1  0
 25 26  2  0
 25 27  1  0
  8  4  1  0
 24 12  1  0
 24 18  1  0
M  CHG  2  13   1  27  -1
M  END
>  <id>  (20) 
BACE_138

>  <pic50>  (20) 
6.2146702

>  <pic50_predicted>  (20) 
6.10310200355231

>  <deviation>  (20) 
0.050917449743375406

>  <pic50_predicted_optimized>  (20) 
6.154019453295685

$$$$

     RDKit          2D

 34 36  0  0  0  0  0  0  0  0999 V2000
   -3.0000   -5.1962    0.0000 C   0  0  0  0  0  0  0  0  0  0  0  0
   -1.5000   -5.1962    0.0000 C   0  0  0  0  0  0  0  0  0  0  0  0
   -0.7500   -6.4952    0.0000 O   0  0  0  0  0  0  0  0  0  0  0  0
   -0.7500   -3.8971    0.0000 N   0  0  0  0  0  0  0  0  0  0  0  0
    0.7500   -3.8971    0.0000 C   0  0  0  0  0  0  0  0  0  0  0  0
    1.5000   -2.5981    0.0000 C   0  0  0  0  0  0  0  0  0  0  0  0
    0.7500   -1.2990    0.0000 C   0  0  0  0  0  0  0  0  0  0  0  0
    1.5000    0.0000    0.0000 C   0  0  0  0  0  0  0  0  0  0  0  0
    0.7500    1.2990    0.0000 C   0  0  0  0  0  0  0  0  0  0  0  0
    1.5000    2.5981    0.0000 F   0  0  0  0  0  0  0  0  0  0  0  0
   -0.7500    1.2990    0.0000 C   0  0  0  0  0  0  0  0  0  0  0  0
   -1.5000    0.0000    0.0000 C   0  0  0  0  0  0  0  0  0  0  0  0
   -3.0000    0.0000    0.0000 F   0  0  0  0  0  0  0  0  0  0  0  0
   -0.7500   -1.2990    0.0000 C   0  0  0  0  0  0  0  0  0  0  0  0
    1.5000   -5.1962    0.0000 C   0  0  0  0  0  0  0  0  0  0  0  0
    3.0000   -5.1962    0.0000 O   0  0  0  0  0  0  0  0  0  0  0  0
    0.7500   -6.4952    0.0000 C   0  0  0  0  0  0  0  0  0  0  0  0
    1.5000   -7.7942    0.0000 N   0  0  0  0  0  4  0  0  0  0  0  0
    0.7500   -9.0933    0.0000 C   0  0  0  0  0  0  0  0  0  0  0  0
    1.8991  -10.0574    0.0000 C   0  0  0  0  0  0  0  0  0  0  0  0
    3.3086   -9.5444    0.0000 C   0  0  0  0  0  0  0  0  0  0  0  0
    4.4577  -10.5086    0.0000 C   0  0  0  0  0  0  0  0  0  0  0  0
    4.1972  -11.9858    0.0000 C   0  0  0  0  0  0  0  0  0  0  0  0
    2.7877  -12.4988    0.0000 C   0  0  0  0  0  0  0  0  0  0  0  0
    2.5272  -13.9761    0.0000 C   0  0  0  0  0  0  0  0  0  0  0  0
    1.0500  -13.7156    0.0000 C   0  0  0  0  0  0  0  0  0  0  0  0
    4.0044  -14.2365    0.0000 C   0  0  0  0  0  0  0  0  0  0  0  0
    2.2667  -15.4533    0.0000 C   0  0  0  0  0  0  0  0  0  0  0  0
    0.8572  -15.9663    0.0000 F   0  0  0  0  0  0  0  0  0  0  0  0
    3.4158  -16.4174    0.0000 F   0  0  0  0  0  0  0  0  0  0  0  0
    1.6386  -11.5347    0.0000 C   0  0  0  0  0  0  0  0  0  0  0  0
   -0.3991  -10.0574    0.0000 C   0  0  0  0  0  0  0  0  0  0  0  0
   -0.6595   -8.5802    0.0000 C   0  0  0  0  0  0  0  0  0  0  0  0
   -1.6237   -7.4312    0.0000 C   0  0  0  0  0  0  0  0  0  0  0  0
  1  2  1  0
  2  3  2  0
  2  4  1  0
  4  5  1  0
  5  6  1  1
  6  7  1  0
  7  8  2  0
  8  9  1  0
  9 10  1  0
  9 11  2  0
 11 12  1  0
 12 13  1  0
 12 14  2  0
  5 15  1  0
 15 16  1  6
 15 17  1  0
 17 18  1  0
 19 18  1  6
 19 20  1  0
 20 21  2  0
 21 22  1  0
 22 23  2  0
 23 24  1  0
 24 25  1  0
 25 26  1  0
 25 27  1  0
 25 28  1  0
 28 29  1  0
 28 30  1  0
 24 31  2  0
 19 32  1  0
 32 33  1  0
 33 34  1  1
 14  7  1  0
 33 19  1  0
 31 20  1  0
M  CHG  1  18   1
M  END
>  <id>  (21) 
BACE_1187

>  <pic50>  (21) 
5.7695513

>  <pic50_predicted>  (21) 
6.44466231300398

>  <deviation>  (21) 
1.4988010832439613e-15

>  <pic50_predicted_optimized>  (21) 
6.444662313003982

$$$$

     RDKit          2D

 28 29  0  0  0  0  0  0  0  0999 V2000
   -5.1814   -2.6490    0.0000 C   0  0  0  0  0  0  0  0  0  0  0  0
   -3.7548   -2.1855    0.0000 C   0  0  0  0  0  0  0  0  0  0  0  0
   -2.6401   -3.1891    0.0000 C   0  0  0  0  0  0  0  0  0  0  0  0
   -2.9520   -4.6564    0.0000 C   0  0  0  0  0  0  0  0  0  0  0  0
   -4.3786   -5.1199    0.0000 C   0  0  0  0  0  0  0  0  0  0  0  0
   -5.4933   -4.1162    0.0000 O   0  0  0  0  0  0  0  0  0  0  0  0
   -4.6904   -6.5871    0.0000 N   0  0  0  0  0  0  0  0  0  0  0  0
   -6.1170   -7.0506    0.0000 C   0  0  0  0  0  0  0  0  0  0  0  0
   -6.4289   -8.5179    0.0000 C   0  0  0  0  0  0  0  0  0  0  0  0
   -7.8555   -8.9814    0.0000 O   0  0  0  0  0  0  0  0  0  0  0  0
   -8.1673  -10.4486    0.0000 C   0  0  0  0  0  0  0  0  0  0  0  0
   -9.6346  -10.1367    0.0000 C   0  0  0  0  0  0  0  0  0  0  0  0
   -6.7001  -10.7605    0.0000 C   0  0  0  0  0  0  0  0  0  0  0  0
   -8.4792  -11.9158    0.0000 C   0  0  0  0  0  0  0  0  0  0  0  0
   -7.2317   -6.0469    0.0000 C   0  0  0  0  0  0  0  0  0  0  0  0
   -6.9199   -4.5797    0.0000 O   0  0  0  0  0  0  0  0  0  0  0  0
   -8.6583   -6.5105    0.0000 O   0  0  0  0  0  1  0  0  0  0  0  0
   -1.2135   -2.7256    0.0000 N   0  0  0  0  0  0  0  0  0  0  0  0
   -0.0000   -3.6073    0.0000 C   0  0  0  0  0  0  0  0  0  0  0  0
   -0.0000   -5.1073    0.0000 N   0  0  0  0  0  0  0  0  0  0  0  0
    1.2135   -2.7256    0.0000 N   0  0  0  0  0  0  0  0  0  0  0  0
    0.7500   -1.2990    0.0000 C   0  0  0  0  0  0  0  0  0  0  0  0
    1.5000    0.0000    0.0000 C   0  0  0  0  0  0  0  0  0  0  0  0
    0.7500    1.2990    0.0000 C   0  0  0  0  0  0  0  0  0  0  0  0
    1.5000    2.5981    0.0000 Cl  0  0  0  0  0  0  0  0  0  0  0  0
   -0.7500    1.2990    0.0000 C   0  0  0  0  0  0  0  0  0  0  0  0
   -1.5000    0.0000    0.0000 C   0  0  0  0  0  0  0  0  0  0  0  0
   -0.7500   -1.2990    0.0000 C   0  0  0  0  0  0  0  0  0  0  0  0
  1  2  1  0
  2  3  1  0
  3  4  1  0
  4  5  1  0
  5  6  2  0
  5  7  1  0
  7  8  1  0
  8  9  1  0
  9 10  1  0
 10 11  1  0
 11 12  1  0
 11 13  1  0
 11 14  1  0
  8 15  1  0
 15 16  2  0
 15 17  1  0
  3 18  1  0
 18 19  1  0
 19 20  1  0
 19 21  2  0
 21 22  1  0
 22 23  2  0
 23 24  1  0
 24 25  1  0
 24 26  2  0
 26 27  1  0
 27 28  2  0
 28 18  1  0
 28 22  1  0
M  CHG  1  17  -1
M  END
>  <id>  (22) 
BACE_1494

>  <pic50>  (22) 
4.0604806

>  <pic50_predicted>  (22) 
3.72259333615439

>  <deviation>  (22) 
-0.008711385064184155

>  <pic50_predicted_optimized>  (22) 
3.713881951090206

$$$$

     RDKit          2D

 31 33  0  0  0  0  0  0  0  0999 V2000
   -3.0000   -5.1962    0.0000 C   0  0  0  0  0  0  0  0  0  0  0  0
   -1.5000   -5.1962    0.0000 C   0  0  0  0  0  0  0  0  0  0  0  0
   -0.7500   -6.4952    0.0000 O   0  0  0  0  0  0  0  0  0  0  0  0
   -0.7500   -3.8971    0.0000 N   0  0  0  0  0  0  0  0  0  0  0  0
    0.7500   -3.8971    0.0000 C   0  0  0  0  0  0  0  0  0  0  0  0
    1.5000   -2.5981    0.0000 C   0  0  0  0  0  0  0  0  0  0  0  0
    0.7500   -1.2990    0.0000 C   0  0  0  0  0  0  0  0  0  0  0  0
    1.5000    0.0000    0.0000 C   0  0  0  0  0  0  0  0  0  0  0  0
    0.7500    1.2990    0.0000 C   0  0  0  0  0  0  0  0  0  0  0  0
    1.5000    2.5981    0.0000 F   0  0  0  0  0  0  0  0  0  0  0  0
   -0.7500    1.2990    0.0000 C   0  0  0  0  0  0  0  0  0  0  0  0
   -1.5000    0.0000    0.0000 C   0  0  0  0  0  0  0  0  0  0  0  0
   -3.0000    0.0000    0.0000 F   0  0  0  0  0  0  0  0  0  0  0  0
   -0.7500   -1.2990    0.0000 C   0  0  0  0  0  0  0  0  0  0  0  0
    1.5000   -5.1962    0.0000 C   0  0  0  0  0  0  0  0  0  0  0  0
    3.0000   -5.1962    0.0000 O   0  0  0  0  0  0  0  0  0  0  0  0
    0.7500   -6.4952    0.0000 C   0  0  0  0  0  0  0  0  0  0  0  0
    1.5000   -7.7942    0.0000 N   0  0  0  0  0  4  0  0  0  0  0  0
    0.7500   -9.0933    0.0000 C   0  0  0  0  0  0  0  0  0  0  0  0
    1.8991  -10.0574    0.0000 C   0  0  0  0  0  0  0  0  0  0  0  0
    3.3545   -9.6946    0.0000 C   0  0  0  0  0  0  0  0  0  0  0  0
    4.1494  -10.9666    0.0000 S   0  0  0  0  0  0  0  0  0  0  0  0
    3.1852  -12.1157    0.0000 C   0  0  0  0  0  0  0  0  0  0  0  0
    3.5481  -13.5711    0.0000 C   0  0  0  0  0  0  0  0  0  0  0  0
    4.9900  -13.9846    0.0000 C   0  0  0  0  0  0  0  0  0  0  0  0
    4.5765  -15.4265    0.0000 C   0  0  0  0  0  0  0  0  0  0  0  0
    5.4034  -12.5427    0.0000 C   0  0  0  0  0  0  0  0  0  0  0  0
    6.4319  -14.3981    0.0000 C   0  0  0  0  0  0  0  0  0  0  0  0
    1.7944  -11.5538    0.0000 N   0  0  0  0  0  0  0  0  0  0  0  0
   -0.3991  -10.0574    0.0000 C   0  0  0  0  0  0  0  0  0  0  0  0
   -0.6595   -8.5802    0.0000 C   0  0  0  0  0  0  0  0  0  0  0  0
  1  2  1  0
  2  3  2  0
  2  4  1  0
  4  5  1  0
  5  6  1  0
  6  7  1  0
  7  8  2  0
  8  9  1  0
  9 10  1  0
  9 11  2  0
 11 12  1  0
 12 13  1  0
 12 14  2  0
  5 15  1  0
 15 16  1  0
 15 17  1  0
 17 18  1  0
 18 19  1  0
 19 20  1  0
 20 21  2  0
 21 22  1  0
 22 23  1  0
 23 24  1  0
 24 25  1  0
 25 26  1  0
 25 27  1  0
 25 28  1  0
 23 29  2  0
 19 30  1  0
 30 31  1  0
 14  7  1  0
 31 19  1  0
 29 20  1  0
M  CHG  1  18   1
M  END
>  <id>  (23) 
BACE_1252

>  <pic50>  (23) 
5.5157003

>  <pic50_predicted>  (23) 
6.09863834598531

>  <deviation>  (23) 
-2.2207351698296427e-15

>  <pic50_predicted_optimized>  (23) 
6.098638345985307

$$$$

     RDKit          2D

 33 35  0  0  0  0  0  0  0  0999 V2000
   -3.0000   -5.1962    0.0000 C   0  0  0  0  0  0  0  0  0  0  0  0
   -1.5000   -5.1962    0.0000 C   0  0  0  0  0  0  0  0  0  0  0  0
   -0.7500   -6.4952    0.0000 O   0  0  0  0  0  0  0  0  0  0  0  0
   -0.7500   -3.8971    0.0000 N   0  0  0  0  0  0  0  0  0  0  0  0
    0.7500   -3.8971    0.0000 C   0  0  0  0  0  0  0  0  0  0  0  0
    1.5000   -2.5981    0.0000 C   0  0  0  0  0  0  0  0  0  0  0  0
    0.7500   -1.2990    0.0000 C   0  0  0  0  0  0  0  0  0  0  0  0
    1.5000    0.0000    0.0000 C   0  0  0  0  0  0  0  0  0  0  0  0
    0.7500    1.2990    0.0000 C   0  0  0  0  0  0  0  0  0  0  0  0
    1.5000    2.5981    0.0000 F   0  0  0  0  0  0  0  0  0  0  0  0
   -0.7500    1.2990    0.0000 C   0  0  0  0  0  0  0  0  0  0  0  0
   -1.5000    0.0000    0.0000 C   0  0  0  0  0  0  0  0  0  0  0  0
   -3.0000    0.0000    0.0000 F   0  0  0  0  0  0  0  0  0  0  0  0
   -0.7500   -1.2990    0.0000 C   0  0  0  0  0  0  0  0  0  0  0  0
    1.5000   -5.1962    0.0000 C   0  0  0  0  0  0  0  0  0  0  0  0
    3.0000   -5.1962    0.0000 O   0  0  0  0  0  0  0  0  0  0  0  0
    0.7500   -6.4952    0.0000 C   0  0  0  0  0  0  0  0  0  0  0  0
    1.5000   -7.7942    0.0000 N   0  0  0  0  0  4  0  0  0  0  0  0
    0.7500   -9.0933    0.0000 C   0  0  0  0  0  0  0  0  0  0  0  0
    2.1595   -9.6063    0.0000 C   0  0  0  0  0  0  0  0  0  0  0  0
    3.4031   -8.7675    0.0000 C   0  0  0  0  0  0  0  0  0  0  0  0
    4.5851   -9.6910    0.0000 C   0  0  0  0  0  0  0  0  0  0  0  0
    4.0721  -11.1005    0.0000 N   0  0  0  0  0  0  0  0  0  0  0  0
    4.9109  -12.3441    0.0000 C   0  0  0  0  0  0  0  0  0  0  0  0
    3.6673  -13.1829    0.0000 C   0  0  0  0  0  0  0  0  0  0  0  0
    6.1544  -11.5053    0.0000 C   0  0  0  0  0  0  0  0  0  0  0  0
    5.7497  -13.5877    0.0000 C   0  0  0  0  0  0  0  0  0  0  0  0
    2.5730  -11.0482    0.0000 N   0  0  0  0  0  0  0  0  0  0  0  0
   -0.3991   -8.1291    0.0000 C   0  0  0  0  0  0  0  0  0  0  0  0
   -1.8086   -8.6421    0.0000 C   0  0  0  0  0  0  0  0  0  0  0  0
   -2.0691  -10.1193    0.0000 C   0  0  0  0  0  0  0  0  0  0  0  0
   -0.9200  -11.0835    0.0000 C   0  0  0  0  0  0  0  0  0  0  0  0
    0.4895  -10.5705    0.0000 C   0  0  0  0  0  0  0  0  0  0  0  0
  1  2  1  0
  2  3  2  0
  2  4  1  0
  4  5  1  0
  5  6  1  0
  6  7  1  0
  7  8  2  0
  8  9  1  0
  9 10  1  0
  9 11  2  0
 11 12  1  0
 12 13  1  0
 12 14  2  0
  5 15  1  0
 15 16  1  0
 15 17  1  0
 17 18  1  0
 18 19  1  0
 19 20  1  0
 20 21  1  0
 21 22  2  0
 22 23  1  0
 23 24  1  0
 24 25  1  0
 24 26  1  0
 24 27  1  0
 23 28  1  0
 19 29  1  0
 29 30  1  0
 30 31  1  0
 31 32  1  0
 32 33  1  0
 14  7  1  0
 33 19  1  0
 28 20  2  0
M  CHG  1  18   1
M  END
>  <id>  (24) 
BACE_1199

>  <pic50>  (24) 
5.7351823

>  <pic50_predicted>  (24) 
6.19256120249297

>  <deviation>  (24) 
0.006094669615775391

>  <pic50_predicted_optimized>  (24) 
6.198655872108746

$$$$

     RDKit          2D

 31 34  0  0  0  0  0  0  0  0999 V2000
   -6.1740   -7.4303    0.0000 C   0  0  0  0  0  0  0  0  0  0  0  0
   -4.6740   -7.4303    0.0000 C   0  0  0  0  0  0  0  0  0  0  0  0
   -3.9240   -8.7293    0.0000 C   0  0  0  0  0  0  0  0  0  0  0  0
   -3.9240   -6.1312    0.0000 C   0  0  0  0  0  0  0  0  0  0  0  0
   -2.4240   -6.1312    0.0000 C   0  0  0  0  0  0  0  0  0  0  0  0
   -1.6740   -4.8322    0.0000 N   0  0  0  0  0  0  0  0  0  0  0  0
   -0.1822   -4.6754    0.0000 C   0  0  0  0  0  0  0  0  0  0  0  0
    0.1297   -3.2082    0.0000 C   0  0  0  0  0  0  0  0  0  0  0  0
    1.5000   -2.5981    0.0000 C   0  0  0  0  0  0  0  0  0  0  0  0
    0.7500   -1.2990    0.0000 C   0  0  0  0  0  0  0  0  0  0  0  0
    1.5000    0.0000    0.0000 C   0  0  0  0  0  0  0  0  0  0  0  0
    0.7500    1.2990    0.0000 C   0  0  0  0  0  0  0  0  0  0  0  0
   -0.7500    1.2990    0.0000 C   0  0  0  0  0  0  0  0  0  0  0  0
   -1.5000    0.0000    0.0000 C   0  0  0  0  0  0  0  0  0  0  0  0
   -3.0000    0.0000    0.0000 C   0  0  0  0  0  0  0  0  0  0  0  0
   -3.7500    1.2990    0.0000 C   0  0  0  0  0  0  0  0  0  0  0  0
   -5.2500    1.2990    0.0000 C   0  0  0  0  0  0  0  0  0  0  0  0
   -6.0000    0.0000    0.0000 C   0  0  0  0  0  0  0  0  0  0  0  0
   -5.2500   -1.2990    0.0000 N   0  0  0  0  0  0  0  0  0  0  0  0
   -3.7500   -1.2990    0.0000 C   0  0  0  0  0  0  0  0  0  0  0  0
   -3.0000   -2.5981    0.0000 F   0  0  0  0  0  0  0  0  0  0  0  0
   -0.7500   -1.2990    0.0000 C   0  0  0  0  0  0  0  0  0  0  0  0
    1.9635   -4.0247    0.0000 N   0  0  0  0  0  0  0  0  0  0  0  0
    3.4635   -4.0247    0.0000 C   0  0  0  0  0  0  0  0  0  0  0  0
    4.3452   -5.2382    0.0000 N   0  0  0  0  0  0  0  0  0  0  0  0
    3.9271   -2.5981    0.0000 N   0  0  0  0  0  0  0  0  0  0  0  0
    5.3536   -2.1346    0.0000 C   0  0  0  0  0  0  0  0  0  0  0  0
    2.7135   -1.7164    0.0000 C   0  0  0  0  0  0  0  0  0  0  0  0
    2.7135   -0.2164    0.0000 O   0  0  0  0  0  0  0  0  0  0  0  0
   -1.1694   -2.4582    0.0000 C   0  0  0  0  0  0  0  0  0  0  0  0
   -2.2841   -3.4619    0.0000 N   0  0  0  0  0  0  0  0  0  0  0  0
  1  2  1  0
  2  3  1  0
  2  4  1  0
  4  5  1  0
  5  6  1  0
  6  7  1  0
  7  8  2  0
  8  9  1  0
  9 10  1  0
 10 11  2  0
 11 12  1  0
 12 13  2  0
 13 14  1  0
 14 15  1  0
 15 16  2  0
 16 17  1  0
 17 18  2  0
 18 19  1  0
 19 20  2  0
 20 21  1  0
 14 22  2  0
  9 23  1  0
 23 24  2  0
 24 25  1  0
 24 26  1  0
 26 27  1  0
 26 28  1  0
 28 29  2  0
  8 30  1  0
 30 31  2  0
 31  6  1  0
 28  9  1  0
 22 10  1  0
 20 15  1  0
M  END
>  <id>  (25) 
BACE_464

>  <pic50>  (25) 
7.7958798

>  <pic50_predicted>  (25) 
7.10165615618108

>  <deviation>  (25) 
0.28095700898818265

>  <pic50_predicted_optimized>  (25) 
7.382613165169262

$$$$

     RDKit          2D

 33 35  0  0  0  0  0  0  0  0999 V2000
   -3.0000   -5.1962    0.0000 C   0  0  0  0  0  0  0  0  0  0  0  0
   -1.5000   -5.1962    0.0000 C   0  0  0  0  0  0  0  0  0  0  0  0
   -0.7500   -6.4952    0.0000 O   0  0  0  0  0  0  0  0  0  0  0  0
   -0.7500   -3.8971    0.0000 N   0  0  0  0  0  0  0  0  0  0  0  0
    0.7500   -3.8971    0.0000 C   0  0  0  0  0  0  0  0  0  0  0  0
    1.5000   -2.5981    0.0000 C   0  0  0  0  0  0  0  0  0  0  0  0
    0.7500   -1.2990    0.0000 C   0  0  0  0  0  0  0  0  0  0  0  0
    1.5000    0.0000    0.0000 C   0  0  0  0  0  0  0  0  0  0  0  0
    0.7500    1.2990    0.0000 C   0  0  0  0  0  0  0  0  0  0  0  0
    1.5000    2.5981    0.0000 F   0  0  0  0  0  0  0  0  0  0  0  0
   -0.7500    1.2990    0.0000 C   0  0  0  0  0  0  0  0  0  0  0  0
   -1.5000    0.0000    0.0000 C   0  0  0  0  0  0  0  0  0  0  0  0
   -3.0000    0.0000    0.0000 F   0  0  0  0  0  0  0  0  0  0  0  0
   -0.7500   -1.2990    0.0000 C   0  0  0  0  0  0  0  0  0  0  0  0
    1.5000   -5.1962    0.0000 C   0  0  0  0  0  0  0  0  0  0  0  0
    3.0000   -5.1962    0.0000 O   0  0  0  0  0  0  0  0  0  0  0  0
    0.7500   -6.4952    0.0000 C   0  0  0  0  0  0  0  0  0  0  0  0
    1.5000   -7.7942    0.0000 N   0  0  0  0  0  4  0  0  0  0  0  0
    0.7500   -9.0933    0.0000 C   0  0  0  0  0  0  0  0  0  0  0  0
    1.8991  -10.0574    0.0000 C   0  0  0  0  0  0  0  0  0  0  0  0
    3.3086   -9.5444    0.0000 C   0  0  0  0  0  0  0  0  0  0  0  0
    4.4577  -10.5086    0.0000 C   0  0  0  0  0  0  0  0  0  0  0  0
    4.1972  -11.9858    0.0000 C   0  0  0  0  0  0  0  0  0  0  0  0
    2.7877  -12.4988    0.0000 C   0  0  0  0  0  0  0  0  0  0  0  0
    2.5272  -13.9761    0.0000 C   0  0  0  0  0  0  0  0  0  0  0  0
    2.2667  -15.4533    0.0000 C   0  0  0  0  0  0  0  0  0  0  0  0
    1.0500  -13.7156    0.0000 C   0  0  0  0  0  0  0  0  0  0  0  0
    0.0858  -14.8646    0.0000 F   0  0  0  0  0  0  0  0  0  0  0  0
    4.0044  -14.2365    0.0000 C   0  0  0  0  0  0  0  0  0  0  0  0
    4.5174  -15.6461    0.0000 F   0  0  0  0  0  0  0  0  0  0  0  0
    1.6386  -11.5347    0.0000 C   0  0  0  0  0  0  0  0  0  0  0  0
   -0.3991  -10.0574    0.0000 C   0  0  0  0  0  0  0  0  0  0  0  0
   -0.6595   -8.5802    0.0000 C   0  0  0  0  0  0  0  0  0  0  0  0
  1  2  1  0
  2  3  2  0
  2  4  1  0
  4  5  1  0
  5  6  1  1
  6  7  1  0
  7  8  2  0
  8  9  1  0
  9 10  1  0
  9 11  2  0
 11 12  1  0
 12 13  1  0
 12 14  2  0
  5 15  1  0
 15 16  1  6
 15 17  1  0
 17 18  1  0
 18 19  1  0
 19 20  1  0
 20 21  2  0
 21 22  1  0
 22 23  2  0
 23 24  1  0
 24 25  1  0
 25 26  1  0
 25 27  1  0
 27 28  1  0
 25 29  1  0
 29 30  1  0
 24 31  2  0
 19 32  1  0
 32 33  1  0
 14  7  1  0
 33 19  1  0
 31 20  1  0
M  CHG  1  18   1
M  END
>  <id>  (26) 
BACE_1002

>  <pic50>  (26) 
6.4089355

>  <pic50_predicted>  (26) 
6.16163933679634

>  <deviation>  (26) 
0.02290368000864858

>  <pic50_predicted_optimized>  (26) 
6.184543016804989

$$$$

     RDKit          2D

 39 42  0  0  0  0  0  0  0  0999 V2000
   -7.9880   -8.2209    0.0000 C   0  0  0  0  0  0  0  0  0  0  0  0
   -6.7980   -7.3078    0.0000 C   0  0  0  0  0  0  0  0  0  0  0  0
   -6.9938   -5.8206    0.0000 C   0  0  0  0  0  0  0  0  0  0  0  0
   -6.0133   -4.6343    0.0000 C   0  0  0  0  0  0  0  0  0  0  0  0
   -5.3499   -5.9797    0.0000 C   0  0  0  0  0  0  0  0  0  0  0  0
   -4.2221   -6.9687    0.0000 C   0  0  0  0  0  0  0  0  0  0  0  0
   -5.4122   -7.8818    0.0000 N   0  0  0  0  0  0  0  0  0  0  0  0
   -2.8017   -7.4508    0.0000 O   0  0  0  0  0  0  0  0  0  0  0  0
   -1.3049   -7.3527    0.0000 C   0  0  0  0  0  0  0  0  0  0  0  0
    0.0404   -6.6893    0.0000 C   0  0  0  0  0  0  0  0  0  0  0  0
    1.0294   -5.5615    0.0000 C   0  0  0  0  0  0  0  0  0  0  0  0
    1.5115   -4.1411    0.0000 C   0  0  0  0  0  0  0  0  0  0  0  0
    1.4134   -2.6443    0.0000 O   0  0  0  0  0  0  0  0  0  0  0  0
    0.7500   -1.2990    0.0000 C   0  0  0  0  0  0  0  0  0  0  0  0
    1.5000    0.0000    0.0000 C   0  0  0  0  0  0  0  0  0  0  0  0
    0.7500    1.2990    0.0000 C   0  0  0  0  0  0  0  0  0  0  0  0
   -0.7500    1.2990    0.0000 C   0  0  0  0  0  0  0  0  0  0  0  0
   -1.5000    0.0000    0.0000 C   0  0  0  0  0  0  0  0  0  0  0  0
   -0.7500   -1.2990    0.0000 C   0  0  0  0  0  0  0  0  0  0  0  0
   -3.2949    0.0740    0.0000 C   0  0  0  0  0  0  0  0  0  0  0  0
   -4.6403   -0.5894    0.0000 C   0  0  0  0  0  0  0  0  0  0  0  0
   -5.5534    0.6006    0.0000 C   0  0  0  0  0  0  0  0  0  0  0  0
   -7.0406    0.4048    0.0000 O   0  0  0  0  0  0  0  0  0  0  0  0
   -4.9794    1.9865    0.0000 C   0  0  0  0  0  0  0  0  0  0  0  0
   -5.8925    3.1765    0.0000 N   0  0  0  0  0  4  0  0  0  0  0  0
   -5.3185    4.5623    0.0000 C   0  0  0  0  0  0  0  0  0  0  0  0
   -6.2316    5.7523    0.0000 C   0  0  0  0  0  0  0  0  0  0  0  0
   -3.8313    4.7581    0.0000 C   0  0  0  0  0  0  0  0  0  0  0  0
   -2.9182    3.5681    0.0000 C   0  0  0  0  0  0  0  0  0  0  0  0
   -1.4310    3.7638    0.0000 C   0  0  0  0  0  0  0  0  0  0  0  0
   -0.8570    5.1497    0.0000 C   0  0  0  0  0  0  0  0  0  0  0  0
   -1.7701    6.3397    0.0000 C   0  0  0  0  0  0  0  0  0  0  0  0
   -1.1961    7.7255    0.0000 C   0  0  0  0  0  0  0  0  0  0  0  0
    0.2911    7.9213    0.0000 C   0  0  0  0  0  0  0  0  0  0  0  0
   -2.1092    8.9155    0.0000 C   0  0  0  0  0  0  0  0  0  0  0  0
   -3.2573    6.1439    0.0000 C   0  0  0  0  0  0  0  0  0  0  0  0
   -5.6293   -1.7172    0.0000 N   0  0  0  0  0  0  0  0  0  0  0  0
   -6.1114   -3.1376    0.0000 C   0  0  0  0  0  0  0  0  0  0  0  0
   -7.5986   -2.9418    0.0000 O   0  0  0  0  0  0  0  0  0  0  0  0
  1  2  1  0
  2  3  2  0
  3  4  1  0
  4  5  2  0
  5  6  1  0
  6  7  2  0
  6  8  1  0
  8  9  1  0
  9 10  1  0
 10 11  1  0
 11 12  1  0
 12 13  1  0
 13 14  1  0
 14 15  2  0
 15 16  1  0
 16 17  2  0
 17 18  1  0
 18 19  2  0
 18 20  1  0
 20 21  1  0
 21 22  1  0
 22 23  1  0
 22 24  1  0
 24 25  1  0
 25 26  1  0
 26 27  1  0
 26 28  1  0
 28 29  2  0
 29 30  1  0
 30 31  2  0
 31 32  1  0
 32 33  1  0
 33 34  1  0
 33 35  1  0
 32 36  2  0
 21 37  1  0
 37 38  1  0
 38 39  2  0
  7  2  1  0
 19 14  1  0
 36 28  1  0
 38  4  1  0
M  CHG  1  25   1
M  END
>  <id>  (27) 
BACE_786

>  <pic50>  (27) 
7.0809221

>  <pic50_predicted>  (27) 
7.58310938275158

>  <deviation>  (27) 
-0.057461400259273696

>  <pic50_predicted_optimized>  (27) 
7.525647982492306

$$$$

     RDKit          2D

 40 44  0  0  0  0  0  0  0  0999 V2000
   -7.9880   -8.2209    0.0000 C   0  0  0  0  0  0  0  0  0  0  0  0
   -6.7980   -7.3078    0.0000 C   0  0  0  0  0  0  0  0  0  0  0  0
   -6.9938   -5.8206    0.0000 C   0  0  0  0  0  0  0  0  0  0  0  0
   -6.0133   -4.6343    0.0000 C   0  0  0  0  0  0  0  0  0  0  0  0
   -5.3499   -5.9797    0.0000 C   0  0  0  0  0  0  0  0  0  0  0  0
   -4.2221   -6.9687    0.0000 C   0  0  0  0  0  0  0  0  0  0  0  0
   -5.4122   -7.8818    0.0000 N   0  0  0  0  0  0  0  0  0  0  0  0
   -2.8017   -7.4508    0.0000 O   0  0  0  0  0  0  0  0  0  0  0  0
   -1.3049   -7.3527    0.0000 C   0  0  0  0  0  0  0  0  0  0  0  0
    0.0404   -6.6893    0.0000 C   0  0  0  0  0  0  0  0  0  0  0  0
    1.0294   -5.5615    0.0000 C   0  0  0  0  0  0  0  0  0  0  0  0
    1.5115   -4.1411    0.0000 C   0  0  0  0  0  0  0  0  0  0  0  0
    1.4134   -2.6443    0.0000 O   0  0  0  0  0  0  0  0  0  0  0  0
    0.7500   -1.2990    0.0000 C   0  0  0  0  0  0  0  0  0  0  0  0
    1.5000    0.0000    0.0000 C   0  0  0  0  0  0  0  0  0  0  0  0
    0.7500    1.2990    0.0000 C   0  0  0  0  0  0  0  0  0  0  0  0
   -0.7500    1.2990    0.0000 C   0  0  0  0  0  0  0  0  0  0  0  0
   -1.5000    0.0000    0.0000 C   0  0  0  0  0  0  0  0  0  0  0  0
   -0.7500   -1.2990    0.0000 C   0  0  0  0  0  0  0  0  0  0  0  0
   -3.2949    0.0740    0.0000 C   0  0  0  0  0  0  0  0  0  0  0  0
   -4.6403   -0.5894    0.0000 C   0  0  0  0  0  0  0  0  0  0  0  0
   -5.5534    0.6006    0.0000 C   0  0  0  0  0  0  0  0  0  0  0  0
   -7.0406    0.4048    0.0000 O   0  0  0  0  0  0  0  0  0  0  0  0
   -4.9794    1.9865    0.0000 C   0  0  0  0  0  0  0  0  0  0  0  0
   -5.8925    3.1765    0.0000 N   0  0  0  0  0  4  0  0  0  0  0  0
   -5.3185    4.5623    0.0000 C   0  0  0  0  0  0  0  0  0  0  0  0
   -3.8540    4.2376    0.0000 C   0  0  0  0  0  0  0  0  0  0  0  0
   -3.4030    2.8071    0.0000 C   0  0  0  0  0  0  0  0  0  0  0  0
   -1.9385    2.4824    0.0000 C   0  0  0  0  0  0  0  0  0  0  0  0
   -0.9252    3.5883    0.0000 C   0  0  0  0  0  0  0  0  0  0  0  0
   -1.3762    5.0189    0.0000 C   0  0  0  0  0  0  0  0  0  0  0  0
   -0.3628    6.1248    0.0000 C   0  0  0  0  0  0  0  0  0  0  0  0
    1.1016    5.8002    0.0000 C   0  0  0  0  0  0  0  0  0  0  0  0
   -0.8139    7.5554    0.0000 C   0  0  0  0  0  0  0  0  0  0  0  0
   -2.8407    5.3436    0.0000 C   0  0  0  0  0  0  0  0  0  0  0  0
   -5.2531    6.0609    0.0000 C   0  0  0  0  0  0  0  0  0  0  0  0
   -6.5836    5.3683    0.0000 C   0  0  0  0  0  0  0  0  0  0  0  0
   -5.6293   -1.7172    0.0000 N   0  0  0  0  0  0  0  0  0  0  0  0
   -6.1114   -3.1376    0.0000 C   0  0  0  0  0  0  0  0  0  0  0  0
   -7.5986   -2.9418    0.0000 O   0  0  0  0  0  0  0  0  0  0  0  0
  1  2  1  0
  2  3  2  0
  3  4  1  0
  4  5  2  0
  5  6  1  0
  6  7  2  0
  6  8  1  0
  8  9  1  0
  9 10  1  0
 10 11  1  0
 11 12  1  0
 12 13  1  0
 13 14  1  0
 14 15  2  0
 15 16  1  0
 16 17  2  0
 17 18  1  0
 18 19  2  0
 18 20  1  0
 20 21  1  0
 21 22  1  0
 22 23  1  0
 22 24  1  0
 24 25  1  0
 25 26  1  0
 26 27  1  0
 27 28  2  0
 28 29  1  0
 29 30  2  0
 30 31  1  0
 31 32  1  0
 32 33  1  0
 32 34  1  0
 31 35  2  0
 26 36  1  0
 36 37  1  0
 21 38  1  0
 38 39  1  0
 39 40  2  0
  7  2  1  0
 19 14  1  0
 37 26  1  0
 39  4  1  0
 35 27  1  0
M  CHG  1  25   1
M  END
>  <id>  (28) 
BACE_469

>  <pic50>  (28) 
7.7695513

>  <pic50_predicted>  (28) 
7.30622159304784

>  <deviation>  (28) 
0.11114122449995452

>  <pic50_predicted_optimized>  (28) 
7.417362817547795

$$$$

     RDKit          2D

 29 32  0  0  0  0  0  0  0  0999 V2000
   -6.1740   -7.4303    0.0000 C   0  0  0  0  0  0  0  0  0  0  0  0
   -4.6740   -7.4303    0.0000 C   0  0  0  0  0  0  0  0  0  0  0  0
   -3.9240   -6.1312    0.0000 C   0  0  0  0  0  0  0  0  0  0  0  0
   -2.4240   -6.1312    0.0000 C   0  0  0  0  0  0  0  0  0  0  0  0
   -1.6740   -4.8322    0.0000 N   0  0  0  0  0  0  0  0  0  0  0  0
   -0.1822   -4.6754    0.0000 C   0  0  0  0  0  0  0  0  0  0  0  0
    0.1297   -3.2082    0.0000 C   0  0  0  0  0  0  0  0  0  0  0  0
    1.5000   -2.5981    0.0000 C   0  0  0  0  0  0  0  0  0  0  0  0
    0.7500   -1.2990    0.0000 C   0  0  0  0  0  0  0  0  0  0  0  0
    1.5000    0.0000    0.0000 C   0  0  0  0  0  0  0  0  0  0  0  0
    0.7500    1.2990    0.0000 C   0  0  0  0  0  0  0  0  0  0  0  0
   -0.7500    1.2990    0.0000 C   0  0  0  0  0  0  0  0  0  0  0  0
   -1.5000    0.0000    0.0000 C   0  0  0  0  0  0  0  0  0  0  0  0
   -3.0000    0.0000    0.0000 C   0  0  0  0  0  0  0  0  0  0  0  0
   -3.7500    1.2990    0.0000 C   0  0  0  0  0  0  0  0  0  0  0  0
   -5.2500    1.2990    0.0000 N   0  0  0  0  0  0  0  0  0  0  0  0
   -6.0000    0.0000    0.0000 C   0  0  0  0  0  0  0  0  0  0  0  0
   -5.2500   -1.2990    0.0000 N   0  0  0  0  0  0  0  0  0  0  0  0
   -3.7500   -1.2990    0.0000 C   0  0  0  0  0  0  0  0  0  0  0  0
   -0.7500   -1.2990    0.0000 C   0  0  0  0  0  0  0  0  0  0  0  0
    1.9635   -4.0247    0.0000 N   0  0  0  0  0  0  0  0  0  0  0  0
    3.4635   -4.0247    0.0000 C   0  0  0  0  0  0  0  0  0  0  0  0
    4.3452   -5.2382    0.0000 N   0  0  0  0  0  0  0  0  0  0  0  0
    3.9271   -2.5981    0.0000 N   0  0  0  0  0  0  0  0  0  0  0  0
    5.3536   -2.1346    0.0000 C   0  0  0  0  0  0  0  0  0  0  0  0
    2.7135   -1.7164    0.0000 C   0  0  0  0  0  0  0  0  0  0  0  0
    2.7135   -0.2164    0.0000 O   0  0  0  0  0  0  0  0  0  0  0  0
   -1.1694   -2.4582    0.0000 C   0  0  0  0  0  0  0  0  0  0  0  0
   -2.2841   -3.4619    0.0000 N   0  0  0  0  0  0  0  0  0  0  0  0
  1  2  1  0
  2  3  1  0
  3  4  1  0
  4  5  1  0
  5  6  1  0
  6  7  2  0
  7  8  1  0
  8  9  1  0
  9 10  2  0
 10 11  1  0
 11 12  2  0
 12 13  1  0
 13 14  1  0
 14 15  2  0
 15 16  1  0
 16 17  2  0
 17 18  1  0
 18 19  2  0
 13 20  2  0
  8 21  1  0
 21 22  2  0
 22 23  1  0
 22 24  1  0
 24 25  1  0
 24 26  1  0
 26 27  2  0
  7 28  1  0
 28 29  2  0
 29  5  1  0
 26  8  1  0
 20  9  1  0
 19 14  1  0
M  END
>  <id>  (29) 
BACE_374

>  <pic50>  (29) 
8.0969095

>  <pic50_predicted>  (29) 
7.21447917749955

>  <deviation>  (29) 
0.16379791207783215

>  <pic50_predicted_optimized>  (29) 
7.378277089577383

$$$$

     RDKit          2D

 30 33  0  0  0  0  0  0  0  0999 V2000
    3.7500   -1.2990    0.0000 C   0  0  0  0  0  0  0  0  0  0  0  0
    3.0000   -2.5981    0.0000 C   0  0  0  0  0  0  0  0  0  0  0  0
    3.7500   -3.8971    0.0000 C   0  0  0  0  0  0  0  0  0  0  0  0
    3.0000   -5.1962    0.0000 C   0  0  0  0  0  0  0  0  0  0  0  0
    1.5000   -5.1962    0.0000 C   0  0  0  0  0  0  0  0  0  0  0  0
    0.7500   -3.8971    0.0000 C   0  0  0  0  0  0  0  0  0  0  0  0
    1.5000   -2.5981    0.0000 C   0  0  0  0  0  0  0  0  0  0  0  0
    0.7500   -1.2990    0.0000 C   0  0  0  0  0  0  0  0  0  0  0  0
    1.5000    0.0000    0.0000 C   0  0  0  0  0  0  0  0  0  0  0  0
    0.7500    1.2990    0.0000 C   0  0  0  0  0  0  0  0  0  0  0  0
   -0.7500    1.2990    0.0000 C   0  0  0  0  0  0  0  0  0  0  0  0
   -1.5000    2.5981    0.0000 N   0  0  0  0  0  0  0  0  0  0  0  0
   -3.0000    2.5981    0.0000 C   0  0  0  0  0  0  0  0  0  0  0  0
   -3.7500    3.8971    0.0000 N   0  0  0  0  0  0  0  0  0  0  0  0
   -3.7500    1.2990    0.0000 C   0  0  0  0  0  0  0  0  0  0  0  0
   -5.2500    1.2990    0.0000 C   0  0  0  0  0  0  0  0  0  0  0  0
   -6.0000    2.5981    0.0000 C   0  0  0  0  0  0  0  0  0  0  0  0
   -5.2500    3.8971    0.0000 C   0  0  0  0  0  0  0  0  0  0  0  0
   -7.5000    2.5981    0.0000 C   0  0  0  0  0  0  0  0  0  0  0  0
   -8.2500    1.2990    0.0000 O   0  0  0  0  0  0  0  0  0  0  0  0
   -8.2500    3.8971    0.0000 N   0  0  0  0  0  0  0  0  0  0  0  0
   -9.7500    3.8971    0.0000 C   0  0  0  0  0  0  0  0  0  0  0  0
  -10.5000    5.1962    0.0000 C   0  0  0  0  0  0  0  0  0  0  0  0
   -9.8899    6.5665    0.0000 C   0  0  0  0  0  0  0  0  0  0  0  0
  -11.0046    7.5702    0.0000 N   0  0  0  0  0  0  0  0  0  0  0  0
  -12.3037    6.8202    0.0000 C   0  0  0  0  0  0  0  0  0  0  0  0
  -11.9918    5.3529    0.0000 S   0  0  0  0  0  0  0  0  0  0  0  0
   -3.0000    0.0000    0.0000 C   0  0  0  0  0  0  0  0  0  0  0  0
   -1.5000    0.0000    0.0000 C   0  0  0  0  0  0  0  0  0  0  0  0
   -0.7500   -1.2990    0.0000 C   0  0  0  0  0  0  0  0  0  0  0  0
  1  2  1  0
  2  3  2  0
  3  4  1  0
  4  5  2  0
  5  6  1  0
  6  7  2  0
  7  8  1  0
  8  9  2  0
  9 10  1  0
 10 11  2  0
 11 12  1  0
 12 13  2  0
 13 14  1  0
 13 15  1  0
 15 16  1  0
 16 17  1  0
 17 18  1  0
 17 19  1  0
 19 20  2  0
 19 21  1  0
 21 22  1  0
 22 23  1  0
 23 24  2  0
 24 25  1  0
 25 26  2  0
 26 27  1  0
 15 28  2  0
 28 29  1  0
 29 30  2  0
  7  2  1  0
 30  8  1  0
 29 11  1  0
 27 23  1  0
M  END
>  <id>  (30) 
BACE_604

>  <pic50>  (30) 
7.5086384

>  <pic50_predicted>  (30) 
7.89099111353822

>  <deviation>  (30) 
5.222674145007507e-15

>  <pic50_predicted_optimized>  (30) 
7.890991113538226

$$$$

     RDKit          2D

 36 39  0  0  0  0  0  0  0  0999 V2000
    8.2500   -9.0933    0.0000 C   0  0  0  0  0  0  0  0  0  0  0  0
    7.5000   -7.7942    0.0000 C   0  0  0  0  0  0  0  0  0  0  0  0
    6.0000   -7.7942    0.0000 C   0  0  0  0  0  0  0  0  0  0  0  0
    5.2500   -6.4952    0.0000 N   0  0  0  0  0  4  0  0  0  0  0  0
    3.7500   -6.4952    0.0000 C   0  0  0  0  0  0  0  0  0  0  0  0
    3.0000   -5.1962    0.0000 C   0  0  0  0  0  0  0  0  0  0  0  0
    3.7500   -3.8971    0.0000 O   0  0  0  0  0  0  0  0  0  0  0  0
    1.5000   -5.1962    0.0000 C   0  0  0  0  0  0  0  0  0  0  0  0
    0.7500   -6.4952    0.0000 C   0  0  0  0  0  0  0  0  0  0  0  0
    1.5000   -7.7942    0.0000 C   0  0  0  0  0  0  0  0  0  0  0  0
    0.7500   -9.0933    0.0000 C   0  0  0  0  0  0  0  0  0  0  0  0
    1.5000  -10.3923    0.0000 C   0  0  0  0  0  0  0  0  0  0  0  0
    3.0000  -10.3923    0.0000 C   0  0  0  0  0  0  0  0  0  0  0  0
    3.7500   -9.0933    0.0000 C   0  0  0  0  0  0  0  0  0  0  0  0
    3.0000   -7.7942    0.0000 C   0  0  0  0  0  0  0  0  0  0  0  0
    0.7500   -3.8971    0.0000 N   0  0  0  0  0  0  0  0  0  0  0  0
    1.5000   -2.5981    0.0000 C   0  0  0  0  0  0  0  0  0  0  0  0
    3.0000   -2.5981    0.0000 O   0  0  0  0  0  0  0  0  0  0  0  0
    0.7500   -1.2990    0.0000 C   0  0  0  0  0  0  0  0  0  0  0  0
    1.5000    0.0000    0.0000 C   0  0  0  0  0  0  0  0  0  0  0  0
    0.7500    1.2990    0.0000 C   0  0  0  0  0  0  0  0  0  0  0  0
   -0.7500    1.2990    0.0000 C   0  0  0  0  0  0  0  0  0  0  0  0
   -1.7537    2.4138    0.0000 C   0  0  0  0  0  0  0  0  0  0  0  0
   -3.1240    1.8037    0.0000 C   0  0  0  0  0  0  0  0  0  0  0  0
   -2.9672    0.3119    0.0000 N   0  0  0  0  0  0  0  0  0  0  0  0
   -4.0819   -0.6918    0.0000 C   0  0  0  0  0  0  0  0  0  0  0  0
   -5.5085   -0.2283    0.0000 C   0  0  0  0  0  0  0  0  0  0  0  0
   -1.5000    0.0000    0.0000 C   0  0  0  0  0  0  0  0  0  0  0  0
   -0.7500   -1.2990    0.0000 C   0  0  0  0  0  0  0  0  0  0  0  0
   -1.4638    3.8855    0.0000 C   0  0  0  0  0  0  0  0  0  0  0  0
   -0.1324    4.5764    0.0000 C   0  0  0  0  0  0  0  0  0  0  0  0
    1.2379    3.9663    0.0000 S   0  0  0  0  0  0  0  0  0  0  0  0
    1.5278    5.4381    0.0000 O   0  0  0  0  0  0  0  0  0  0  0  0
    2.7372    4.0112    0.0000 O   0  0  0  0  0  0  0  0  0  0  0  0
    1.6153    2.5146    0.0000 N   0  0  0  0  0  0  0  0  0  0  0  0
    3.0870    2.2247    0.0000 C   0  0  0  0  0  0  0  0  0  0  0  0
  1  2  1  0
  2  3  1  0
  3  4  1  0
  4  5  1  0
  5  6  1  0
  6  7  1  6
  6  8  1  0
  8  9  1  6
  9 10  1  0
 10 11  2  0
 11 12  1  0
 12 13  2  0
 13 14  1  0
 14 15  2  0
  8 16  1  0
 16 17  1  0
 17 18  2  0
 17 19  1  0
 19 20  2  0
 20 21  1  0
 21 22  2  0
 22 23  1  0
 23 24  2  0
 24 25  1  0
 25 26  1  0
 26 27  1  0
 25 28  1  0
 28 29  2  0
 23 30  1  0
 30 31  1  0
 31 32  1  0
 32 33  2  0
 32 34  2  0
 32 35  1  0
 35 36  1  0
 15 10  1  0
 29 19  1  0
 35 21  1  0
 28 22  1  0
M  CHG  1   4   1
M  END
>  <id>  (31) 
BACE_369

>  <pic50>  (31) 
8.0969105

>  <pic50_predicted>  (31) 
7.59905778760279

>  <deviation>  (31) 
0.05573432984291403

>  <pic50_predicted_optimized>  (31) 
7.654792117445704

$$$$

     RDKit          2D

 35 37  0  0  0  0  0  0  0  0999 V2000
   -3.0000   -5.1962    0.0000 C   0  0  0  0  0  0  0  0  0  0  0  0
   -1.5000   -5.1962    0.0000 C   0  0  0  0  0  0  0  0  0  0  0  0
   -0.7500   -6.4952    0.0000 O   0  0  0  0  0  0  0  0  0  0  0  0
   -0.7500   -3.8971    0.0000 N   0  0  0  0  0  0  0  0  0  0  0  0
    0.7500   -3.8971    0.0000 C   0  0  0  0  0  0  0  0  0  0  0  0
    1.5000   -2.5981    0.0000 C   0  0  0  0  0  0  0  0  0  0  0  0
    0.7500   -1.2990    0.0000 C   0  0  0  0  0  0  0  0  0  0  0  0
    1.5000    0.0000    0.0000 C   0  0  0  0  0  0  0  0  0  0  0  0
    0.7500    1.2990    0.0000 C   0  0  0  0  0  0  0  0  0  0  0  0
    1.5000    2.5981    0.0000 F   0  0  0  0  0  0  0  0  0  0  0  0
   -0.7500    1.2990    0.0000 C   0  0  0  0  0  0  0  0  0  0  0  0
   -1.5000    0.0000    0.0000 C   0  0  0  0  0  0  0  0  0  0  0  0
   -3.0000    0.0000    0.0000 F   0  0  0  0  0  0  0  0  0  0  0  0
   -0.7500   -1.2990    0.0000 C   0  0  0  0  0  0  0  0  0  0  0  0
    1.5000   -5.1962    0.0000 C   0  0  0  0  0  0  0  0  0  0  0  0
    3.0000   -5.1962    0.0000 O   0  0  0  0  0  0  0  0  0  0  0  0
    0.7500   -6.4952    0.0000 C   0  0  0  0  0  0  0  0  0  0  0  0
    1.5000   -7.7942    0.0000 N   0  0  0  0  0  4  0  0  0  0  0  0
    0.7500   -9.0933    0.0000 C   0  0  0  0  0  0  0  0  0  0  0  0
    2.1595   -9.6063    0.0000 C   0  0  0  0  0  0  0  0  0  0  0  0
    3.3086   -8.6421    0.0000 C   0  0  0  0  0  0  0  0  0  0  0  0
    4.7181   -9.1551    0.0000 C   0  0  0  0  0  0  0  0  0  0  0  0
    4.9786  -10.6324    0.0000 C   0  0  0  0  0  0  0  0  0  0  0  0
    3.8296  -11.5965    0.0000 C   0  0  0  0  0  0  0  0  0  0  0  0
    4.0900  -13.0738    0.0000 C   0  0  0  0  0  0  0  0  0  0  0  0
    2.6128  -13.3342    0.0000 C   0  0  0  0  0  0  0  0  0  0  0  0
    5.5672  -12.8133    0.0000 C   0  0  0  0  0  0  0  0  0  0  0  0
    4.3505  -14.5510    0.0000 C   0  0  0  0  0  0  0  0  0  0  0  0
    2.4200  -11.0835    0.0000 C   0  0  0  0  0  0  0  0  0  0  0  0
   -0.3991   -8.1291    0.0000 C   0  0  0  0  0  0  0  0  0  0  0  0
   -1.8086   -8.6421    0.0000 C   0  0  0  0  0  0  0  0  0  0  0  0
   -2.0691  -10.1193    0.0000 C   0  0  0  0  0  0  0  0  0  0  0  0
   -3.4786  -10.6324    0.0000 O   0  0  0  0  0  0  0  0  0  0  0  0
   -0.9200  -11.0835    0.0000 C   0  0  0  0  0  0  0  0  0  0  0  0
    0.4895  -10.5705    0.0000 C   0  0  0  0  0  0  0  0  0  0  0  0
  1  2  1  0
  2  3  2  0
  2  4  1  0
  4  5  1  0
  5  6  1  0
  6  7  1  0
  7  8  2  0
  8  9  1  0
  9 10  1  0
  9 11  2  0
 11 12  1  0
 12 13  1  0
 12 14  2  0
  5 15  1  0
 15 16  1  0
 15 17  1  0
 17 18  1  0
 18 19  1  0
 19 20  1  0
 20 21  2  0
 21 22  1  0
 22 23  2  0
 23 24  1  0
 24 25  1  0
 25 26  1  0
 25 27  1  0
 25 28  1  0
 24 29  2  0
 19 30  1  0
 30 31  1  0
 31 32  1  0
 32 33  1  0
 32 34  1  0
 34 35  1  0
 14  7  1  0
 35 19  1  0
 29 20  1  0
M  CHG  1  18   1
M  END
>  <id>  (32) 
BACE_541

>  <pic50>  (32) 
7.6197886

>  <pic50_predicted>  (32) 
6.62156039286095

>  <deviation>  (32) 
0.02765711975097381

>  <pic50_predicted_optimized>  (32) 
6.649217512611924

$$$$

     RDKit          2D

 35 38  0  0  0  0  0  0  0  0999 V2000
    5.2500   -1.2990    0.0000 C   0  0  0  0  0  0  0  0  0  0  0  0
    3.7500   -1.2990    0.0000 C   0  0  0  0  0  0  0  0  0  0  0  0
    3.0000    0.0000    0.0000 N   0  0  0  0  0  0  0  0  0  0  0  0
    1.5000    0.0000    0.0000 C   0  0  0  0  0  0  0  0  0  0  0  0
    0.7500   -1.2990    0.0000 C   0  0  0  0  0  0  0  0  0  0  0  0
   -0.7500   -1.2990    0.0000 C   0  0  0  0  0  0  0  0  0  0  0  0
   -1.5000   -2.5981    0.0000 C   0  0  0  0  0  0  0  0  0  0  0  0
   -0.7500   -3.8971    0.0000 O   0  0  0  0  0  0  0  0  0  0  0  0
   -3.0000   -2.5981    0.0000 N   0  0  0  0  0  0  0  0  0  0  0  0
   -3.7500   -3.8971    0.0000 C   0  0  0  0  0  0  0  0  0  0  0  0
   -5.2500   -3.8971    0.0000 C   0  0  0  0  0  0  0  0  0  0  0  0
   -6.0000   -5.1962    0.0000 C   0  0  0  0  0  0  0  0  0  0  0  0
   -7.5000   -5.1962    0.0000 C   0  0  0  0  0  0  0  0  0  0  0  0
   -8.2500   -6.4952    0.0000 C   0  0  0  0  0  0  0  0  0  0  0  0
   -7.5000   -7.7942    0.0000 C   0  0  0  0  0  0  0  0  0  0  0  0
   -6.0000   -7.7942    0.0000 C   0  0  0  0  0  0  0  0  0  0  0  0
   -5.2500   -6.4952    0.0000 C   0  0  0  0  0  0  0  0  0  0  0  0
   -3.0000   -5.1962    0.0000 C   0  0  0  0  0  0  0  0  0  0  0  0
   -1.5000   -5.1962    0.0000 O   0  0  0  0  0  0  0  0  0  0  0  0
   -3.7500   -6.4952    0.0000 C   0  0  0  0  0  0  0  0  0  0  0  0
   -3.0000   -7.7942    0.0000 N   0  0  0  0  0  4  0  0  0  0  0  0
   -3.7500   -9.0933    0.0000 C   0  0  0  0  0  0  0  0  0  0  0  0
   -3.7500  -10.5933    0.0000 C   0  0  0  0  0  0  0  0  0  0  0  0
   -5.0490   -9.8433    0.0000 C   0  0  0  0  0  0  0  0  0  0  0  0
   -1.5000    0.0000    0.0000 C   0  0  0  0  0  0  0  0  0  0  0  0
   -0.7500    1.2990    0.0000 C   0  0  0  0  0  0  0  0  0  0  0  0
   -1.5000    2.5981    0.0000 N   0  0  0  0  0  0  0  0  0  0  0  0
   -0.7500    3.8971    0.0000 C   0  0  0  0  0  0  0  0  0  0  0  0
   -1.5000    5.1962    0.0000 C   0  0  0  0  0  0  0  0  0  0  0  0
   -3.0000    5.1962    0.0000 C   0  0  0  0  0  0  0  0  0  0  0  0
   -3.7500    3.8971    0.0000 C   0  0  0  0  0  0  0  0  0  0  0  0
   -3.0000    2.5981    0.0000 S   0  0  0  0  0  0  0  0  0  0  0  0
   -2.7395    1.1209    0.0000 O   0  0  0  0  0  0  0  0  0  0  0  0
   -4.4095    2.0850    0.0000 O   0  0  0  0  0  0  0  0  0  0  0  0
    0.7500    1.2990    0.0000 C   0  0  0  0  0  0  0  0  0  0  0  0
  1  2  1  0
  2  3  1  0
  3  4  1  0
  4  5  2  0
  5  6  1  0
  6  7  1  0
  7  8  2  0
  7  9  1  0
  9 10  1  0
 10 11  1  0
 11 12  1  0
 12 13  2  0
 13 14  1  0
 14 15  2  0
 15 16  1  0
 16 17  2  0
 10 18  1  0
 18 19  1  0
 18 20  1  0
 20 21  1  0
 21 22  1  0
 22 23  1  0
 23 24  1  0
  6 25  2  0
 25 26  1  0
 26 27  1  0
 27 28  1  0
 28 29  1  0
 29 30  1  0
 30 31  1  0
 31 32  1  0
 32 33  2  0
 32 34  2  0
 26 35  2  0
 35  4  1  0
 17 12  1  0
 24 22  1  0
 32 27  1  0
M  CHG  1  21   1
M  END
>  <id>  (33) 
BACE_839

>  <pic50>  (33) 
6.9208188

>  <pic50_predicted>  (33) 
7.16289992820633

>  <deviation>  (33) 
-0.27066690273608585

>  <pic50_predicted_optimized>  (33) 
6.892233025470244

$$$$

     RDKit          2D

 40 44  0  0  0  0  0  0  0  0999 V2000
   -5.5085    0.2283    0.0000 C   0  0  0  0  0  0  0  0  0  0  0  0
   -4.0819    0.6918    0.0000 C   0  0  0  0  0  0  0  0  0  0  0  0
   -2.9672   -0.3119    0.0000 C   0  0  0  0  0  0  0  0  0  0  0  0
   -3.1240   -1.8037    0.0000 C   0  0  0  0  0  0  0  0  0  0  0  0
   -1.7537   -2.4138    0.0000 N   0  0  0  0  0  0  0  0  0  0  0  0
   -0.7500   -1.2990    0.0000 C   0  0  0  0  0  0  0  0  0  0  0  0
    0.7500   -1.2990    0.0000 C   0  0  0  0  0  0  0  0  0  0  0  0
    1.5000    0.0000    0.0000 C   0  0  0  0  0  0  0  0  0  0  0  0
    0.7500    1.2990    0.0000 C   0  0  0  0  0  0  0  0  0  0  0  0
    1.5000    2.5981    0.0000 C   0  0  0  0  0  0  0  0  0  0  0  0
    0.7500    3.8971    0.0000 O   0  0  0  0  0  0  0  0  0  0  0  0
    3.0000    2.5981    0.0000 N   0  0  0  0  0  0  0  0  0  0  0  0
    3.7500    3.8971    0.0000 C   0  0  0  0  0  0  0  0  0  0  0  0
    5.2500    3.8971    0.0000 C   0  0  0  0  0  0  0  0  0  0  0  0
    6.0000    5.1962    0.0000 C   0  0  0  0  0  0  0  0  0  0  0  0
    7.5000    5.1962    0.0000 C   0  0  0  0  0  0  0  0  0  0  0  0
    8.2500    6.4952    0.0000 C   0  0  0  0  0  0  0  0  0  0  0  0
    7.5000    7.7942    0.0000 C   0  0  0  0  0  0  0  0  0  0  0  0
    6.0000    7.7942    0.0000 C   0  0  0  0  0  0  0  0  0  0  0  0
    5.2500    6.4952    0.0000 C   0  0  0  0  0  0  0  0  0  0  0  0
    3.0000    5.1962    0.0000 C   0  0  0  0  0  0  0  0  0  0  0  0
    1.5000    5.1962    0.0000 O   0  0  0  0  0  0  0  0  0  0  0  0
    3.7500    6.4952    0.0000 C   0  0  0  0  0  0  0  0  0  0  0  0
    3.0000    7.7942    0.0000 N   0  0  0  0  0  4  0  0  0  0  0  0
    3.7500    9.0933    0.0000 C   0  0  0  0  0  0  0  0  0  0  0  0
    5.2500    9.0933    0.0000 C   0  0  0  0  0  0  0  0  0  0  0  0
    6.0000   10.3923    0.0000 C   0  0  0  0  0  0  0  0  0  0  0  0
    5.2500   11.6913    0.0000 C   0  0  0  0  0  0  0  0  0  0  0  0
    3.7500   11.6913    0.0000 C   0  0  0  0  0  0  0  0  0  0  0  0
    3.0000   10.3923    0.0000 C   0  0  0  0  0  0  0  0  0  0  0  0
   -0.7500    1.2990    0.0000 C   0  0  0  0  0  0  0  0  0  0  0  0
   -1.5000    0.0000    0.0000 C   0  0  0  0  0  0  0  0  0  0  0  0
    1.6497   -2.4992    0.0000 N   0  0  0  0  0  0  0  0  0  0  0  0
    3.1215   -2.2094    0.0000 C   0  0  0  0  0  0  0  0  0  0  0  0
    4.1084   -3.3390    0.0000 C   0  0  0  0  0  0  0  0  0  0  0  0
    1.2724   -3.9510    0.0000 S   0  0  0  0  0  0  0  0  0  0  0  0
    2.7717   -3.9959    0.0000 O   0  0  0  0  0  0  0  0  0  0  0  0
    1.5622   -5.4227    0.0000 O   0  0  0  0  0  0  0  0  0  0  0  0
   -0.0980   -4.5611    0.0000 C   0  0  0  0  0  0  0  0  0  0  0  0
   -1.4293   -3.8701    0.0000 C   0  0  0  0  0  0  0  0  0  0  0  0
  1  2  1  0
  2  3  1  0
  3  4  2  0
  4  5  1  0
  5  6  1  0
  6  7  2  0
  7  8  1  0
  8  9  2  0
  9 10  1  0
 10 11  2  0
 10 12  1  0
 12 13  1  0
 13 14  1  0
 14 15  1  0
 15 16  2  0
 16 17  1  0
 17 18  2  0
 18 19  1  0
 19 20  2  0
 13 21  1  0
 21 22  1  0
 21 23  1  0
 23 24  1  0
 24 25  1  0
 25 26  1  0
 26 27  1  0
 27 28  1  0
 28 29  1  0
 29 30  1  0
  9 31  1  0
 31 32  2  0
  7 33  1  0
 33 34  1  0
 34 35  1  0
 33 36  1  0
 36 37  2  0
 36 38  2  0
 36 39  1  0
 39 40  1  0
 32  3  1  0
 40  5  1  0
 32  6  1  0
 20 15  1  0
 30 25  1  0
M  CHG  1  24   1
M  END
>  <id>  (34) 
BACE_361

>  <pic50>  (34) 
8.1549015

>  <pic50_predicted>  (34) 
7.66757194349871

>  <deviation>  (34) 
0.2117839807719552

>  <pic50_predicted_optimized>  (34) 
7.879355924270665

$$$$

     RDKit          2D

 36 40  0  0  0  0  0  0  0  0999 V2000
   -5.5085    0.2283    0.0000 C   0  0  0  0  0  0  0  0  0  0  0  0
   -4.0819    0.6918    0.0000 C   0  0  0  0  0  0  0  0  0  0  0  0
   -2.9672   -0.3119    0.0000 N   0  0  0  0  0  0  0  0  0  0  0  0
   -3.1240   -1.8037    0.0000 C   0  0  0  0  0  0  0  0  0  0  0  0
   -1.7537   -2.4138    0.0000 C   0  0  0  0  0  0  0  0  0  0  0  0
   -0.7500   -1.2990    0.0000 C   0  0  0  0  0  0  0  0  0  0  0  0
    0.7500   -1.2990    0.0000 C   0  0  0  0  0  0  0  0  0  0  0  0
    1.5000    0.0000    0.0000 C   0  0  0  0  0  0  0  0  0  0  0  0
    0.7500    1.2990    0.0000 C   0  0  0  0  0  0  0  0  0  0  0  0
    1.5000    2.5981    0.0000 C   0  0  0  0  0  0  0  0  0  0  0  0
    0.7500    3.8971    0.0000 O   0  0  0  0  0  0  0  0  0  0  0  0
    3.0000    2.5981    0.0000 N   0  0  0  0  0  0  0  0  0  0  0  0
    3.7500    3.8971    0.0000 C   0  0  0  0  0  0  0  0  0  0  0  0
    5.2500    3.8971    0.0000 C   0  0  0  0  0  0  0  0  0  0  0  0
    6.0000    5.1962    0.0000 C   0  0  0  0  0  0  0  0  0  0  0  0
    7.5000    5.1962    0.0000 C   0  0  0  0  0  0  0  0  0  0  0  0
    8.2500    6.4952    0.0000 C   0  0  0  0  0  0  0  0  0  0  0  0
    7.5000    7.7942    0.0000 C   0  0  0  0  0  0  0  0  0  0  0  0
    6.0000    7.7942    0.0000 C   0  0  0  0  0  0  0  0  0  0  0  0
    5.2500    6.4952    0.0000 C   0  0  0  0  0  0  0  0  0  0  0  0
    3.0000    5.1962    0.0000 C   0  0  0  0  0  0  0  0  0  0  0  0
    1.5000    5.1962    0.0000 O   0  0  0  0  0  0  0  0  0  0  0  0
    3.7500    6.4952    0.0000 C   0  0  0  0  0  0  0  0  0  0  0  0
    3.0000    7.7942    0.0000 N   0  0  0  0  0  4  0  0  0  0  0  0
    3.7500    9.0933    0.0000 C   0  0  0  0  0  0  0  0  0  0  0  0
    3.7500   10.5933    0.0000 C   0  0  0  0  0  0  0  0  0  0  0  0
    5.0490    9.8433    0.0000 C   0  0  0  0  0  0  0  0  0  0  0  0
   -0.7500    1.2990    0.0000 C   0  0  0  0  0  0  0  0  0  0  0  0
   -1.5000    0.0000    0.0000 C   0  0  0  0  0  0  0  0  0  0  0  0
    1.6497   -2.4992    0.0000 N   0  0  0  0  0  0  0  0  0  0  0  0
    3.1215   -2.2094    0.0000 C   0  0  0  0  0  0  0  0  0  0  0  0
    1.2724   -3.9510    0.0000 S   0  0  0  0  0  0  0  0  0  0  0  0
    2.7717   -3.9959    0.0000 O   0  0  0  0  0  0  0  0  0  0  0  0
    1.5622   -5.4227    0.0000 O   0  0  0  0  0  0  0  0  0  0  0  0
   -0.0980   -4.5611    0.0000 C   0  0  0  0  0  0  0  0  0  0  0  0
   -1.4293   -3.8701    0.0000 C   0  0  0  0  0  0  0  0  0  0  0  0
  1  2  1  0
  2  3  1  0
  3  4  1  0
  4  5  2  0
  5  6  1  0
  6  7  2  0
  7  8  1  0
  8  9  2  0
  9 10  1  0
 10 11  2  0
 10 12  1  0
 12 13  1  0
 13 14  1  0
 14 15  1  0
 15 16  2  0
 16 17  1  0
 17 18  2  0
 18 19  1  0
 19 20  2  0
 13 21  1  0
 21 22  1  6
 21 23  1  0
 23 24  1  0
 24 25  1  0
 25 26  1  0
 26 27  1  0
  9 28  1  0
 28 29  2  0
  7 30  1  0
 30 31  1  0
 30 32  1  0
 32 33  2  0
 32 34  2  0
 32 35  1  0
 35 36  1  0
 29  3  1  0
 36  5  1  0
 29  6  1  0
 20 15  1  0
 27 25  1  0
M  CHG  1  24   1
M  END
>  <id>  (35) 
BACE_383

>  <pic50>  (35) 
8.0457573

>  <pic50_predicted>  (35) 
7.60646357367464

>  <deviation>  (35) 
-0.018313348175495858

>  <pic50_predicted_optimized>  (35) 
7.588150225499144

$$$$

     RDKit          2D

 31 34  0  0  0  0  0  0  0  0999 V2000
    0.4895   -5.3743    0.0000 C   0  0  0  0  0  0  0  0  0  0  0  0
    0.7500   -3.8971    0.0000 C   0  0  0  0  0  0  0  0  0  0  0  0
    2.1595   -4.4101    0.0000 C   0  0  0  0  0  0  0  0  0  0  0  0
    1.5000   -2.5981    0.0000 C   0  0  0  0  0  0  0  0  0  0  0  0
    0.7500   -1.2990    0.0000 C   0  0  0  0  0  0  0  0  0  0  0  0
    1.5000    0.0000    0.0000 C   0  0  0  0  0  0  0  0  0  0  0  0
    0.7500    1.2990    0.0000 C   0  0  0  0  0  0  0  0  0  0  0  0
    1.5000    2.5981    0.0000 Cl  0  0  0  0  0  0  0  0  0  0  0  0
   -0.7500    1.2990    0.0000 C   0  0  0  0  0  0  0  0  0  0  0  0
   -1.5000    0.0000    0.0000 C   0  0  0  0  0  0  0  0  0  0  0  0
   -0.7500   -1.2990    0.0000 C   0  0  0  0  0  0  0  0  0  0  0  0
   -1.5000   -2.5981    0.0000 C   0  0  0  0  0  0  0  0  0  0  0  0
   -3.0000   -2.5981    0.0000 N   0  0  0  0  0  0  0  0  0  0  0  0
   -3.7500   -3.8971    0.0000 C   0  0  0  0  0  0  0  0  0  0  0  0
   -5.2500   -3.8971    0.0000 C   0  0  0  0  0  0  0  0  0  0  0  0
   -6.0000   -5.1962    0.0000 C   0  0  0  0  0  0  0  0  0  0  0  0
   -7.5000   -5.1962    0.0000 C   0  0  0  0  0  0  0  0  0  0  0  0
   -8.2500   -6.4952    0.0000 C   0  0  0  0  0  0  0  0  0  0  0  0
   -7.5000   -7.7942    0.0000 C   0  0  0  0  0  0  0  0  0  0  0  0
   -6.0000   -7.7942    0.0000 C   0  0  0  0  0  0  0  0  0  0  0  0
   -5.2500   -6.4952    0.0000 C   0  0  0  0  0  0  0  0  0  0  0  0
   -3.0000   -5.1962    0.0000 C   0  0  0  0  0  0  0  0  0  0  0  0
   -3.7500   -6.4952    0.0000 N   0  0  0  0  0  0  0  0  0  0  0  0
   -3.0000   -7.7942    0.0000 C   0  0  0  0  0  0  0  0  0  0  0  0
   -1.5000   -7.7942    0.0000 C   0  0  0  0  0  0  0  0  0  0  0  0
   -0.7500   -9.0933    0.0000 C   0  0  0  0  0  0  0  0  0  0  0  0
   -0.0000  -10.3923    0.0000 N   0  0  0  0  0  0  0  0  0  0  0  0
   -0.7500   -6.4952    0.0000 C   0  0  0  0  0  0  0  0  0  0  0  0
    0.7500   -6.4952    0.0000 O   0  0  0  0  0  0  0  0  0  0  0  0
   -1.5000   -5.1962    0.0000 N   0  0  0  0  0  0  0  0  0  0  0  0
   -0.7500   -3.8971    0.0000 N   0  0  0  0  0  0  0  0  0  0  0  0
  1  2  1  0
  2  3  1  0
  2  4  1  0
  4  5  1  0
  5  6  2  0
  6  7  1  0
  7  8  1  0
  7  9  2  0
  9 10  1  0
 10 11  2  0
 11 12  1  0
 12 13  1  0
 13 14  1  0
 14 15  1  0
 15 16  1  0
 16 17  2  0
 17 18  1  0
 18 19  2  0
 19 20  1  0
 20 21  2  0
 14 22  1  0
 22 23  2  0
 23 24  1  0
 24 25  2  0
 25 26  1  0
 26 27  3  0
 25 28  1  0
 28 29  2  0
 28 30  1  0
 12 31  2  0
 31  2  1  0
 11  5  1  0
 21 16  1  0
 30 22  1  0
M  END
>  <id>  (36) 
BACE_1024

>  <pic50>  (36) 
6.3279023

>  <pic50_predicted>  (36) 
7.04472635286379

>  <deviation>  (36) 
-0.22485429980451788

>  <pic50_predicted_optimized>  (36) 
6.819872053059272

$$$$

     RDKit          2D

 24 26  0  0  0  0  0  0  0  0999 V2000
    0.4895   -5.3743    0.0000 C   0  0  0  0  0  0  0  0  0  0  0  0
    0.7500   -3.8971    0.0000 C   0  0  0  0  0  0  0  0  0  0  0  0
    2.1595   -4.4101    0.0000 C   0  0  0  0  0  0  0  0  0  0  0  0
    1.5000   -2.5981    0.0000 C   0  0  0  0  0  0  0  0  0  0  0  0
    0.7500   -1.2990    0.0000 C   0  0  0  0  0  0  0  0  0  0  0  0
    1.5000    0.0000    0.0000 C   0  0  0  0  0  0  0  0  0  0  0  0
    0.7500    1.2990    0.0000 C   0  0  0  0  0  0  0  0  0  0  0  0
   -0.7500    1.2990    0.0000 C   0  0  0  0  0  0  0  0  0  0  0  0
   -1.5000    0.0000    0.0000 C   0  0  0  0  0  0  0  0  0  0  0  0
   -0.7500   -1.2990    0.0000 C   0  0  0  0  0  0  0  0  0  0  0  0
   -1.5000   -2.5981    0.0000 C   0  0  0  0  0  0  0  0  0  0  0  0
   -3.0000   -2.5981    0.0000 N   0  0  0  0  0  0  0  0  0  0  0  0
   -3.7500   -3.8971    0.0000 C   0  0  0  0  0  0  0  0  0  0  0  0
   -5.2500   -3.8971    0.0000 C   0  0  0  0  0  0  0  0  0  0  0  0
   -6.0000   -5.1962    0.0000 C   0  0  0  0  0  0  0  0  0  0  0  0
   -7.5000   -5.1962    0.0000 C   0  0  0  0  0  0  0  0  0  0  0  0
   -8.2500   -6.4952    0.0000 C   0  0  0  0  0  0  0  0  0  0  0  0
   -7.5000   -7.7942    0.0000 C   0  0  0  0  0  0  0  0  0  0  0  0
   -6.0000   -7.7942    0.0000 C   0  0  0  0  0  0  0  0  0  0  0  0
   -5.2500   -6.4952    0.0000 C   0  0  0  0  0  0  0  0  0  0  0  0
   -3.0000   -5.1962    0.0000 C   0  0  0  0  0  0  0  0  0  0  0  0
   -1.5000   -5.1962    0.0000 O   0  0  0  0  0  0  0  0  0  0  0  0
   -3.7500   -6.4952    0.0000 O   0  0  0  0  0  1  0  0  0  0  0  0
   -0.7500   -3.8971    0.0000 N   0  0  0  0  0  0  0  0  0  0  0  0
  1  2  1  0
  2  3  1  0
  2  4  1  0
  4  5  1  0
  5  6  2  0
  6  7  1  0
  7  8  2  0
  8  9  1  0
  9 10  2  0
 10 11  1  0
 11 12  1  0
 12 13  1  0
 13 14  1  0
 14 15  1  0
 15 16  2  0
 16 17  1  0
 17 18  2  0
 18 19  1  0
 19 20  2  0
 13 21  1  0
 21 22  2  0
 21 23  1  0
 11 24  2  0
 24  2  1  0
 10  5  1  0
 20 15  1  0
M  CHG  1  23  -1
M  END
>  <id>  (37) 
BACE_1435

>  <pic50>  (37) 
4.5654311

>  <pic50_predicted>  (37) 
4.70463283465552

>  <deviation>  (37) 
0.37360656803505043

>  <pic50_predicted_optimized>  (37) 
5.078239402690571

$$$$

     RDKit          2D

 32 35  0  0  0  0  0  0  0  0999 V2000
    2.3638   -6.3821    0.0000 C   0  0  0  0  0  0  0  0  0  0  0  0
    1.7537   -5.0118    0.0000 N   0  0  0  0  0  0  0  0  0  0  0  0
    2.5037   -3.7128    0.0000 C   0  0  0  0  0  0  0  0  0  0  0  0
    3.9955   -3.5560    0.0000 O   0  0  0  0  0  0  0  0  0  0  0  0
    1.5000   -2.5981    0.0000 C   0  0  0  0  0  0  0  0  0  0  0  0
    0.7500   -1.2990    0.0000 C   0  0  0  0  0  0  0  0  0  0  0  0
    1.5000    0.0000    0.0000 C   0  0  0  0  0  0  0  0  0  0  0  0
    0.7500    1.2990    0.0000 C   0  0  0  0  0  0  0  0  0  0  0  0
   -0.7500    1.2990    0.0000 C   0  0  0  0  0  0  0  0  0  0  0  0
   -1.5000    2.5981    0.0000 O   0  0  0  0  0  0  0  0  0  0  0  0
   -0.7500    3.8971    0.0000 C   0  0  0  0  0  0  0  0  0  0  0  0
    0.0000    5.1962    0.0000 F   0  0  0  0  0  0  0  0  0  0  0  0
   -2.0490    4.6471    0.0000 F   0  0  0  0  0  0  0  0  0  0  0  0
    0.5490    3.1471    0.0000 F   0  0  0  0  0  0  0  0  0  0  0  0
   -1.5000    0.0000    0.0000 C   0  0  0  0  0  0  0  0  0  0  0  0
   -0.7500   -1.2990    0.0000 C   0  0  0  0  0  0  0  0  0  0  0  0
    2.7135   -1.7164    0.0000 C   0  0  0  0  0  0  0  0  0  0  0  0
    4.0838   -2.3265    0.0000 C   0  0  0  0  0  0  0  0  0  0  0  0
    5.2974   -1.4448    0.0000 C   0  0  0  0  0  0  0  0  0  0  0  0
    5.1406    0.0470    0.0000 C   0  0  0  0  0  0  0  0  0  0  0  0
    3.7703    0.6571    0.0000 C   0  0  0  0  0  0  0  0  0  0  0  0
    3.6135    2.1488    0.0000 C   0  0  0  0  0  0  0  0  0  0  0  0
    2.2431    2.7590    0.0000 C   0  0  0  0  0  0  0  0  0  0  0  0
    2.0864    4.2507    0.0000 C   0  0  0  0  0  0  0  0  0  0  0  0
    3.2999    5.1324    0.0000 C   0  0  0  0  0  0  0  0  0  0  0  0
    4.6702    4.5223    0.0000 N   0  0  0  0  0  0  0  0  0  0  0  0
    4.8270    3.0305    0.0000 C   0  0  0  0  0  0  0  0  0  0  0  0
    6.1973    2.4204    0.0000 F   0  0  0  0  0  0  0  0  0  0  0  0
    2.5567   -0.2246    0.0000 C   0  0  0  0  0  0  0  0  0  0  0  0
    0.1297   -3.2082    0.0000 N   0  0  0  0  0  0  0  0  0  0  0  0
    0.2865   -4.7000    0.0000 C   0  0  0  0  0  0  0  0  0  0  0  0
   -0.8282   -5.7037    0.0000 N   0  0  0  0  0  0  0  0  0  0  0  0
  1  2  1  0
  2  3  1  0
  3  4  2  0
  3  5  1  0
  5  6  1  0
  6  7  2  0
  7  8  1  0
  8  9  2  0
  9 10  1  0
 10 11  1  0
 11 12  1  0
 11 13  1  0
 11 14  1  0
  9 15  1  0
 15 16  2  0
  5 17  1  0
 17 18  2  0
 18 19  1  0
 19 20  2  0
 20 21  1  0
 21 22  1  0
 22 23  2  0
 23 24  1  0
 24 25  2  0
 25 26  1  0
 26 27  2  0
 27 28  1  0
 21 29  2  0
  5 30  1  0
 30 31  2  0
 31 32  1  0
 31  2  1  0
 16  6  1  0
 29 17  1  0
 27 22  1  0
M  END
>  <id>  (38) 
BACE_719

>  <pic50>  (38) 
7.221849

>  <pic50_predicted>  (38) 
7.05792481686323

>  <deviation>  (38) 
0.03348579277988144

>  <pic50_predicted_optimized>  (38) 
7.091410609643112

$$$$

     RDKit          2D

 36 39  0  0  0  0  0  0  0  0999 V2000
   -9.5490   -5.7452    0.0000 C   0  0  0  0  0  0  0  0  0  0  0  0
   -8.2500   -6.4952    0.0000 C   0  0  0  0  0  0  0  0  0  0  0  0
   -6.9510   -7.2452    0.0000 C   0  0  0  0  0  0  0  0  0  0  0  0
   -9.0000   -7.7942    0.0000 C   0  0  0  0  0  0  0  0  0  0  0  0
   -7.5000   -5.1962    0.0000 C   0  0  0  0  0  0  0  0  0  0  0  0
   -8.2500   -3.8971    0.0000 C   0  0  0  0  0  0  0  0  0  0  0  0
   -7.5000   -2.5981    0.0000 C   0  0  0  0  0  0  0  0  0  0  0  0
   -6.0000   -2.5981    0.0000 C   0  0  0  0  0  0  0  0  0  0  0  0
   -5.2500   -3.8971    0.0000 C   0  0  0  0  0  0  0  0  0  0  0  0
   -3.7500   -3.8971    0.0000 C   0  0  0  0  0  0  0  0  0  0  0  0
   -3.0000   -5.1962    0.0000 N   0  0  0  0  0  4  0  0  0  0  0  0
   -1.5000   -5.1962    0.0000 C   0  0  0  0  0  0  0  0  0  0  0  0
   -0.7500   -6.4952    0.0000 C   0  0  0  0  0  0  0  0  0  0  0  0
    0.7500   -6.4952    0.0000 S   0  0  0  0  0  0  0  0  0  0  0  0
    2.1595   -7.0082    0.0000 O   0  0  0  0  0  0  0  0  0  0  0  0
    0.4895   -7.9724    0.0000 O   0  0  0  0  0  0  0  0  0  0  0  0
    1.5000   -5.1962    0.0000 C   0  0  0  0  0  0  0  0  0  0  0  0
    0.7500   -3.8971    0.0000 C   0  0  0  0  0  0  0  0  0  0  0  0
    1.5000   -2.5981    0.0000 C   0  0  0  0  0  0  0  0  0  0  0  0
    0.7500   -1.2990    0.0000 C   0  0  0  0  0  0  0  0  0  0  0  0
    1.5000    0.0000    0.0000 C   0  0  0  0  0  0  0  0  0  0  0  0
    0.7500    1.2990    0.0000 C   0  0  0  0  0  0  0  0  0  0  0  0
   -0.7500    1.2990    0.0000 C   0  0  0  0  0  0  0  0  0  0  0  0
   -1.7537    2.4138    0.0000 N   0  0  0  0  0  0  0  0  0  0  0  0
   -3.1240    1.8037    0.0000 C   0  0  0  0  0  0  0  0  0  0  0  0
   -2.9672    0.3119    0.0000 C   0  0  0  0  0  0  0  0  0  0  0  0
   -4.0819   -0.6918    0.0000 C   0  0  0  0  0  0  0  0  0  0  0  0
   -5.5085   -0.2283    0.0000 C   0  0  0  0  0  0  0  0  0  0  0  0
   -6.9351    0.2352    0.0000 F   0  0  0  0  0  0  0  0  0  0  0  0
   -5.9720   -1.6549    0.0000 F   0  0  0  0  0  0  0  0  0  0  0  0
   -5.0450    1.1983    0.0000 F   0  0  0  0  0  0  0  0  0  0  0  0
   -1.5000    0.0000    0.0000 C   0  0  0  0  0  0  0  0  0  0  0  0
   -0.7500   -1.2990    0.0000 C   0  0  0  0  0  0  0  0  0  0  0  0
   -0.7500   -3.8971    0.0000 C   0  0  0  0  0  0  0  0  0  0  0  0
   -1.5000   -2.5981    0.0000 O   0  0  0  0  0  0  0  0  0  0  0  0
   -6.0000   -5.1962    0.0000 C   0  0  0  0  0  0  0  0  0  0  0  0
  1  2  1  0
  2  3  1  0
  2  4  1  0
  2  5  1  0
  5  6  2  0
  6  7  1  0
  7  8  2  0
  8  9  1  0
  9 10  1  0
 10 11  1  0
 11 12  1  0
 12 13  1  0
 13 14  1  0
 14 15  2  0
 14 16  2  0
 14 17  1  0
 17 18  1  0
 18 19  1  0
 19 20  1  0
 20 21  2  0
 21 22  1  0
 22 23  2  0
 23 24  1  0
 24 25  1  0
 25 26  2  0
 26 27  1  0
 27 28  1  0
 28 29  1  0
 28 30  1  0
 28 31  1  0
 26 32  1  0
 32 33  2  0
 18 34  1  0
 34 35  1  0
  9 36  2  0
 36  5  1  0
 34 12  1  0
 33 20  1  0
 32 23  1  0
M  CHG  1  11   1
M  END
>  <id>  (39) 
BACE_848

>  <pic50>  (39) 
6.9208188

>  <pic50_predicted>  (39) 
7.37402920147665

>  <deviation>  (39) 
-0.10643786688151273

>  <pic50_predicted_optimized>  (39) 
7.267591334595137

$$$$

     RDKit          2D

 32 36  0  0  0  0  0  0  0  0999 V2000
   -5.5512    3.9339    0.0000 C   0  0  0  0  0  0  0  0  0  0  0  0
   -4.5475    2.8192    0.0000 O   0  0  0  0  0  0  0  0  0  0  0  0
   -3.0803    3.1311    0.0000 C   0  0  0  0  0  0  0  0  0  0  0  0
   -2.6168    4.5577    0.0000 C   0  0  0  0  0  0  0  0  0  0  0  0
   -1.1496    4.8695    0.0000 C   0  0  0  0  0  0  0  0  0  0  0  0
   -0.1459    3.7548    0.0000 C   0  0  0  0  0  0  0  0  0  0  0  0
   -0.6094    2.3282    0.0000 C   0  0  0  0  0  0  0  0  0  0  0  0
   -2.0766    2.0164    0.0000 C   0  0  0  0  0  0  0  0  0  0  0  0
    0.3943    1.2135    0.0000 C   0  0  0  0  0  0  0  0  0  0  0  0
    1.2760    0.0000    0.0000 C   0  0  0  0  0  0  0  0  0  0  0  0
    0.3943   -1.2135    0.0000 O   0  0  0  0  0  0  0  0  0  0  0  0
   -1.0323   -0.7500    0.0000 C   0  0  0  0  0  0  0  0  0  0  0  0
   -2.2458   -1.6317    0.0000 N   0  0  0  0  0  0  0  0  0  0  0  0
   -1.0323    0.7500    0.0000 N   0  0  0  0  0  0  0  0  0  0  0  0
    1.8615    1.5254    0.0000 C   0  0  0  0  0  0  0  0  0  0  0  0
    2.8652    0.4107    0.0000 C   0  0  0  0  0  0  0  0  0  0  0  0
    4.3324    0.7225    0.0000 C   0  0  0  0  0  0  0  0  0  0  0  0
    5.3361   -0.3922    0.0000 C   0  0  0  0  0  0  0  0  0  0  0  0
    4.8726   -1.8188    0.0000 C   0  0  0  0  0  0  0  0  0  0  0  0
    5.8763   -2.9335    0.0000 C   0  0  0  0  0  0  0  0  0  0  0  0
    7.3435   -2.6216    0.0000 C   0  0  0  0  0  0  0  0  0  0  0  0
    7.8071   -1.1950    0.0000 C   0  0  0  0  0  0  0  0  0  0  0  0
    9.2743   -0.8832    0.0000 O   0  0  0  0  0  0  0  0  0  0  0  0
   10.2780   -1.9979    0.0000 C   0  0  0  0  0  0  0  0  0  0  0  0
   11.2817   -3.1126    0.0000 F   0  0  0  0  0  0  0  0  0  0  0  0
   11.3927   -0.9942    0.0000 F   0  0  0  0  0  0  0  0  0  0  0  0
    9.1633   -3.0016    0.0000 F   0  0  0  0  0  0  0  0  0  0  0  0
    6.8034   -0.0803    0.0000 C   0  0  0  0  0  0  0  0  0  0  0  0
    4.7960    2.1491    0.0000 C   0  0  0  0  0  0  0  0  0  0  0  0
    3.7923    3.2638    0.0000 C   0  0  0  0  0  0  0  0  0  0  0  0
    2.3250    2.9520    0.0000 C   0  0  0  0  0  0  0  0  0  0  0  0
    1.3213    4.0667    0.0000 O   0  0  0  0  0  0  0  0  0  0  0  0
  1  2  1  0
  2  3  1  0
  3  4  2  0
  4  5  1  0
  5  6  2  0
  6  7  1  0
  7  8  2  0
  7  9  1  0
  9 10  1  0
 10 11  1  0
 11 12  1  0
 12 13  1  0
 12 14  2  0
  9 15  1  0
 15 16  2  0
 16 17  1  0
 17 18  1  0
 18 19  2  0
 19 20  1  0
 20 21  2  0
 21 22  1  0
 22 23  1  0
 23 24  1  0
 24 25  1  0
 24 26  1  0
 24 27  1  0
 22 28  2  0
 17 29  2  0
 29 30  1  0
 30 31  2  0
 31 32  1  0
  8  3  1  0
 14  9  1  0
 31 15  1  0
 32  6  1  0
 28 18  1  0
M  END
>  <id>  (40) 
BACE_1240

>  <pic50>  (40) 
5.5590911

>  <pic50_predicted>  (40) 
6.90267692293097

>  <deviation>  (40) 
-0.1389353497077081

>  <pic50_predicted_optimized>  (40) 
6.763741573223262

$$$$

     RDKit          2D

 32 35  0  0  0  0  0  0  0  0999 V2000
    2.3638   -6.3821    0.0000 C   0  0  0  0  0  0  0  0  0  0  0  0
    1.7537   -5.0118    0.0000 N   0  0  0  0  0  0  0  0  0  0  0  0
    2.5037   -3.7128    0.0000 C   0  0  0  0  0  0  0  0  0  0  0  0
    3.9955   -3.5560    0.0000 O   0  0  0  0  0  0  0  0  0  0  0  0
    1.5000   -2.5981    0.0000 C   0  0  0  0  0  0  0  0  0  0  0  0
    0.7500   -1.2990    0.0000 C   0  0  0  0  0  0  0  0  0  0  0  0
    1.5000    0.0000    0.0000 C   0  0  0  0  0  0  0  0  0  0  0  0
    0.7500    1.2990    0.0000 C   0  0  0  0  0  0  0  0  0  0  0  0
   -0.7500    1.2990    0.0000 C   0  0  0  0  0  0  0  0  0  0  0  0
   -1.5000    2.5981    0.0000 O   0  0  0  0  0  0  0  0  0  0  0  0
   -0.7500    3.8971    0.0000 C   0  0  0  0  0  0  0  0  0  0  0  0
    0.0000    5.1962    0.0000 F   0  0  0  0  0  0  0  0  0  0  0  0
   -2.0490    4.6471    0.0000 F   0  0  0  0  0  0  0  0  0  0  0  0
    0.5490    3.1471    0.0000 F   0  0  0  0  0  0  0  0  0  0  0  0
   -1.5000    0.0000    0.0000 C   0  0  0  0  0  0  0  0  0  0  0  0
   -0.7500   -1.2990    0.0000 C   0  0  0  0  0  0  0  0  0  0  0  0
    2.7135   -1.7164    0.0000 C   0  0  0  0  0  0  0  0  0  0  0  0
    4.0838   -2.3265    0.0000 C   0  0  0  0  0  0  0  0  0  0  0  0
    5.2974   -1.4448    0.0000 C   0  0  0  0  0  0  0  0  0  0  0  0
    5.1406    0.0470    0.0000 C   0  0  0  0  0  0  0  0  0  0  0  0
    3.7703    0.6571    0.0000 C   0  0  0  0  0  0  0  0  0  0  0  0
    3.6135    2.1488    0.0000 C   0  0  0  0  0  0  0  0  0  0  0  0
    2.2431    2.7590    0.0000 C   0  0  0  0  0  0  0  0  0  0  0  0
    2.0864    4.2507    0.0000 C   0  0  0  0  0  0  0  0  0  0  0  0
    3.2999    5.1324    0.0000 C   0  0  0  0  0  0  0  0  0  0  0  0
    4.6702    4.5223    0.0000 N   0  0  0  0  0  0  0  0  0  0  0  0
    4.8270    3.0305    0.0000 C   0  0  0  0  0  0  0  0  0  0  0  0
    6.1973    2.4204    0.0000 F   0  0  0  0  0  0  0  0  0  0  0  0
    2.5567   -0.2246    0.0000 C   0  0  0  0  0  0  0  0  0  0  0  0
    0.1297   -3.2082    0.0000 N   0  0  0  0  0  0  0  0  0  0  0  0
    0.2865   -4.7000    0.0000 C   0  0  0  0  0  0  0  0  0  0  0  0
   -0.8282   -5.7037    0.0000 N   0  0  0  0  0  0  0  0  0  0  0  0
  1  2  1  0
  2  3  1  0
  3  4  2  0
  3  5  1  0
  5  6  1  1
  6  7  2  0
  7  8  1  0
  8  9  2  0
  9 10  1  0
 10 11  1  0
 11 12  1  0
 11 13  1  0
 11 14  1  0
  9 15  1  0
 15 16  2  0
  5 17  1  0
 17 18  2  0
 18 19  1  0
 19 20  2  0
 20 21  1  0
 21 22  1  0
 22 23  2  0
 23 24  1  0
 24 25  2  0
 25 26  1  0
 26 27  2  0
 27 28  1  0
 21 29  2  0
  5 30  1  0
 30 31  2  0
 31 32  1  0
 31  2  1  0
 16  6  1  0
 29 17  1  0
 27 22  1  0
M  END
>  <id>  (41) 
BACE_721

>  <pic50>  (41) 
7.221849

>  <pic50_predicted>  (41) 
7.05792481686323

>  <deviation>  (41) 
0.1922821893041147

>  <pic50_predicted_optimized>  (41) 
7.250207006167345

$$$$

     RDKit          2D

 34 36  0  0  0  0  0  0  0  0999 V2000
    3.0000   -1.5000    0.0000 C   0  0  0  0  0  0  0  0  0  0  0  0
    3.0000    0.0000    0.0000 C   0  0  0  0  0  0  0  0  0  0  0  0
    3.0000    1.5000    0.0000 C   0  0  0  0  0  0  0  0  0  0  0  0
    4.5000    0.0000    0.0000 C   0  0  0  0  0  0  0  0  0  0  0  0
    1.5000    0.0000    0.0000 C   0  0  0  0  0  0  0  0  0  0  0  0
    0.7500   -1.2990    0.0000 C   0  0  0  0  0  0  0  0  0  0  0  0
   -0.7500   -1.2990    0.0000 C   0  0  0  0  0  0  0  0  0  0  0  0
   -1.5000    0.0000    0.0000 C   0  0  0  0  0  0  0  0  0  0  0  0
   -0.7500    1.2990    0.0000 C   0  0  0  0  0  0  0  0  0  0  0  0
   -1.5000    2.5981    0.0000 C   0  0  0  0  0  0  0  0  0  0  0  0
   -0.7500    3.8971    0.0000 N   0  0  0  0  0  4  0  0  0  0  0  0
   -1.5000    5.1962    0.0000 C   0  0  0  0  0  0  0  0  0  0  0  0
   -0.7500    6.4952    0.0000 C   0  0  0  0  0  0  0  0  0  0  0  0
   -1.5000    7.7942    0.0000 S   0  0  0  0  0  0  0  0  0  0  0  0
   -1.7605    9.2714    0.0000 O   0  0  0  0  0  0  0  0  0  0  0  0
   -0.0905    8.3073    0.0000 O   0  0  0  0  0  0  0  0  0  0  0  0
   -3.0000    7.7942    0.0000 C   0  0  0  0  0  0  0  0  0  0  0  0
   -3.7500    6.4952    0.0000 C   0  0  0  0  0  0  0  0  0  0  0  0
   -5.2500    6.4952    0.0000 C   0  0  0  0  0  0  0  0  0  0  0  0
   -6.0000    7.7942    0.0000 C   0  0  0  0  0  0  0  0  0  0  0  0
   -5.2500    9.0933    0.0000 C   0  0  0  0  0  0  0  0  0  0  0  0
   -6.0000   10.3923    0.0000 C   0  0  0  0  0  0  0  0  0  0  0  0
   -5.2500   11.6913    0.0000 F   0  0  0  0  0  0  0  0  0  0  0  0
   -7.5000   10.3923    0.0000 C   0  0  0  0  0  0  0  0  0  0  0  0
   -8.2500   11.6913    0.0000 N   0  0  0  0  0  0  0  0  0  0  0  0
   -8.2500    9.0933    0.0000 C   0  0  0  0  0  0  0  0  0  0  0  0
   -9.7500    9.0933    0.0000 O   0  0  0  0  0  0  0  0  0  0  0  0
  -10.5000    7.7942    0.0000 C   0  0  0  0  0  0  0  0  0  0  0  0
  -12.0000    7.7942    0.0000 C   0  0  0  0  0  0  0  0  0  0  0  0
  -12.7500    6.4952    0.0000 F   0  0  0  0  0  0  0  0  0  0  0  0
   -7.5000    7.7942    0.0000 C   0  0  0  0  0  0  0  0  0  0  0  0
   -3.0000    5.1962    0.0000 C   0  0  0  0  0  0  0  0  0  0  0  0
   -3.7500    3.8971    0.0000 O   0  0  0  0  0  0  0  0  0  0  0  0
    0.7500    1.2990    0.0000 C   0  0  0  0  0  0  0  0  0  0  0  0
  1  2  1  0
  2  3  1  0
  2  4  1  0
  2  5  1  0
  5  6  2  0
  6  7  1  0
  7  8  2  0
  8  9  1  0
  9 10  1  0
 10 11  1  0
 11 12  1  0
 12 13  1  0
 13 14  1  0
 14 15  2  0
 14 16  2  0
 14 17  1  0
 17 18  1  0
 18 19  1  0
 19 20  1  0
 20 21  2  0
 21 22  1  0
 22 23  1  0
 22 24  2  0
 24 25  1  0
 24 26  1  0
 26 27  1  0
 27 28  1  0
 28 29  1  0
 29 30  1  0
 26 31  2  0
 18 32  1  0
 32 33  1  0
  9 34  2  0
 34  5  1  0
 32 12  1  0
 31 20  1  0
M  CHG  1  11   1
M  END
>  <id>  (42) 
BACE_664

>  <pic50>  (42) 
7.3665314

>  <pic50_predicted>  (42) 
7.35215119151634

>  <deviation>  (42) 
0.057366284199070604

>  <pic50_predicted_optimized>  (42) 
7.40951747571541

$$$$

     RDKit          2D

 36 39  0  0  0  0  0  0  0  0999 V2000
    7.7942    0.4393    0.0000 C   0  0  0  0  0  0  0  0  0  0  0  0
    7.7942   -1.0607    0.0000 C   0  0  0  0  0  0  0  0  0  0  0  0
    9.0933   -1.8107    0.0000 O   0  0  0  0  0  0  0  0  0  0  0  0
    6.4952   -1.8107    0.0000 N   0  0  0  0  0  0  0  0  0  0  0  0
    6.4952   -3.3107    0.0000 C   0  0  0  0  0  0  0  0  0  0  0  0
    7.7942   -4.0607    0.0000 C   0  0  0  0  0  0  0  0  0  0  0  0
    7.7942   -5.5607    0.0000 C   0  0  0  0  0  0  0  0  0  0  0  0
    6.4952   -6.3107    0.0000 C   0  0  0  0  0  0  0  0  0  0  0  0
    6.4952   -7.8107    0.0000 C   0  0  0  0  0  0  0  0  0  0  0  0
    7.7942   -8.5607    0.0000 C   0  0  0  0  0  0  0  0  0  0  0  0
    7.7942  -10.0607    0.0000 C   0  0  0  0  0  0  0  0  0  0  0  0
    9.0933   -7.8107    0.0000 C   0  0  0  0  0  0  0  0  0  0  0  0
   10.3923   -8.5607    0.0000 F   0  0  0  0  0  0  0  0  0  0  0  0
    9.0933   -6.3107    0.0000 C   0  0  0  0  0  0  0  0  0  0  0  0
    5.1962   -4.0607    0.0000 C   0  0  0  0  0  0  0  0  0  0  0  0
    5.1962   -5.5607    0.0000 O   0  0  0  0  0  0  0  0  0  0  0  0
    3.8971   -3.3107    0.0000 C   0  0  0  0  0  0  0  0  0  0  0  0
    2.5981   -4.0607    0.0000 N   0  0  0  0  0  4  0  0  0  0  0  0
    1.2990   -3.3107    0.0000 C   0  0  0  0  0  0  0  0  0  0  0  0
    1.2990   -1.8107    0.0000 C   0  0  0  0  0  0  0  0  0  0  0  0
   -0.0000   -1.0607    0.0000 C   0  0  0  0  0  0  0  0  0  0  0  0
    1.0607    0.0000    0.0000 C   0  0  0  0  0  0  0  0  0  0  0  0
    0.0000    1.0607    0.0000 C   0  0  0  0  0  0  0  0  0  0  0  0
   -1.0607    0.0000    0.0000 C   0  0  0  0  0  0  0  0  0  0  0  0
   -1.2990   -1.8107    0.0000 O   0  0  0  0  0  0  0  0  0  0  0  0
   -1.2990   -3.3107    0.0000 C   0  0  0  0  0  0  0  0  0  0  0  0
   -2.5981   -4.0607    0.0000 N   0  0  0  0  0  0  0  0  0  0  0  0
   -2.5981   -5.5607    0.0000 C   0  0  0  0  0  0  0  0  0  0  0  0
   -1.2990   -6.3107    0.0000 C   0  0  0  0  0  0  0  0  0  0  0  0
   -1.2990   -7.8107    0.0000 C   0  0  0  0  0  0  0  0  0  0  0  0
   -2.5981   -8.5607    0.0000 C   0  0  0  0  0  0  0  0  0  0  0  0
   -1.8481   -9.8597    0.0000 C   0  0  0  0  0  0  0  0  0  0  0  0
   -3.3481   -7.2616    0.0000 C   0  0  0  0  0  0  0  0  0  0  0  0
   -3.8971   -9.3107    0.0000 C   0  0  0  0  0  0  0  0  0  0  0  0
   -0.0000   -5.5607    0.0000 C   0  0  0  0  0  0  0  0  0  0  0  0
   -0.0000   -4.0607    0.0000 C   0  0  0  0  0  0  0  0  0  0  0  0
  1  2  1  0
  2  3  2  0
  2  4  1  0
  4  5  1  0
  5  6  1  0
  6  7  1  0
  7  8  2  0
  8  9  1  0
  9 10  2  0
 10 11  1  0
 10 12  1  0
 12 13  1  0
 12 14  2  0
  5 15  1  0
 15 16  1  0
 15 17  1  0
 17 18  1  0
 18 19  1  0
 19 20  1  0
 20 21  1  0
 21 22  1  0
 22 23  1  0
 23 24  1  0
 21 25  1  0
 25 26  1  0
 26 27  2  0
 27 28  1  0
 28 29  2  0
 29 30  1  0
 30 31  1  0
 31 32  1  0
 31 33  1  0
 31 34  1  0
 29 35  1  0
 35 36  2  0
 14  7  1  0
 36 19  1  0
 24 21  1  0
 36 26  1  0
M  CHG  1  18   1
M  END
>  <id>  (43) 
BACE_278

>  <pic50>  (43) 
9.004365

>  <pic50_predicted>  (43) 
7.86376307125764

>  <deviation>  (43) 
-0.03484633773872974

>  <pic50_predicted_optimized>  (43) 
7.828916733518911

$$$$

     RDKit          2D

 36 39  0  0  0  0  0  0  0  0999 V2000
    7.7942    0.4393    0.0000 C   0  0  0  0  0  0  0  0  0  0  0  0
    7.7942   -1.0607    0.0000 C   0  0  0  0  0  0  0  0  0  0  0  0
    9.0933   -1.8107    0.0000 O   0  0  0  0  0  0  0  0  0  0  0  0
    6.4952   -1.8107    0.0000 N   0  0  0  0  0  0  0  0  0  0  0  0
    6.4952   -3.3107    0.0000 C   0  0  0  0  0  0  0  0  0  0  0  0
    7.7942   -4.0607    0.0000 C   0  0  0  0  0  0  0  0  0  0  0  0
    7.7942   -5.5607    0.0000 C   0  0  0  0  0  0  0  0  0  0  0  0
    6.4952   -6.3107    0.0000 C   0  0  0  0  0  0  0  0  0  0  0  0
    6.4952   -7.8107    0.0000 C   0  0  0  0  0  0  0  0  0  0  0  0
    7.7942   -8.5607    0.0000 C   0  0  0  0  0  0  0  0  0  0  0  0
    7.7942  -10.0607    0.0000 F   0  0  0  0  0  0  0  0  0  0  0  0
    9.0933   -7.8107    0.0000 C   0  0  0  0  0  0  0  0  0  0  0  0
   10.3923   -8.5607    0.0000 C   0  0  0  0  0  0  0  0  0  0  0  0
    9.0933   -6.3107    0.0000 C   0  0  0  0  0  0  0  0  0  0  0  0
    5.1962   -4.0607    0.0000 C   0  0  0  0  0  0  0  0  0  0  0  0
    5.1962   -5.5607    0.0000 O   0  0  0  0  0  0  0  0  0  0  0  0
    3.8971   -3.3107    0.0000 C   0  0  0  0  0  0  0  0  0  0  0  0
    2.5981   -4.0607    0.0000 N   0  0  0  0  0  4  0  0  0  0  0  0
    1.2990   -3.3107    0.0000 C   0  0  0  0  0  0  0  0  0  0  0  0
    1.2990   -1.8107    0.0000 C   0  0  0  0  0  0  0  0  0  0  0  0
   -0.0000   -1.0607    0.0000 C   0  0  0  0  0  0  0  0  0  0  0  0
    1.0607    0.0000    0.0000 C   0  0  0  0  0  0  0  0  0  0  0  0
    0.0000    1.0607    0.0000 C   0  0  0  0  0  0  0  0  0  0  0  0
   -1.0607    0.0000    0.0000 C   0  0  0  0  0  0  0  0  0  0  0  0
   -1.2990   -1.8107    0.0000 O   0  0  0  0  0  0  0  0  0  0  0  0
   -1.2990   -3.3107    0.0000 C   0  0  0  0  0  0  0  0  0  0  0  0
   -2.5981   -4.0607    0.0000 N   0  0  0  0  0  0  0  0  0  0  0  0
   -2.5981   -5.5607    0.0000 C   0  0  0  0  0  0  0  0  0  0  0  0
   -1.2990   -6.3107    0.0000 C   0  0  0  0  0  0  0  0  0  0  0  0
   -1.2990   -7.8107    0.0000 C   0  0  0  0  0  0  0  0  0  0  0  0
   -2.5981   -8.5607    0.0000 C   0  0  0  0  0  0  0  0  0  0  0  0
   -1.8481   -9.8597    0.0000 C   0  0  0  0  0  0  0  0  0  0  0  0
   -3.3481   -7.2616    0.0000 C   0  0  0  0  0  0  0  0  0  0  0  0
   -3.8971   -9.3107    0.0000 C   0  0  0  0  0  0  0  0  0  0  0  0
   -0.0000   -5.5607    0.0000 C   0  0  0  0  0  0  0  0  0  0  0  0
   -0.0000   -4.0607    0.0000 C   0  0  0  0  0  0  0  0  0  0  0  0
  1  2  1  0
  2  3  2  0
  2  4  1  0
  4  5  1  0
  5  6  1  0
  6  7  1  0
  7  8  2  0
  8  9  1  0
  9 10  2  0
 10 11  1  0
 10 12  1  0
 12 13  1  0
 12 14  2  0
  5 15  1  0
 15 16  1  0
 15 17  1  0
 17 18  1  0
 18 19  1  0
 19 20  1  0
 20 21  1  0
 21 22  1  0
 22 23  1  0
 23 24  1  0
 21 25  1  0
 25 26  1  0
 26 27  2  0
 27 28  1  0
 28 29  2  0
 29 30  1  0
 30 31  1  0
 31 32  1  0
 31 33  1  0
 31 34  1  0
 29 35  1  0
 35 36  2  0
 14  7  1  0
 36 19  1  0
 24 21  1  0
 36 26  1  0
M  CHG  1  18   1
M  END
>  <id>  (44) 
BACE_321

>  <pic50>  (44) 
8.3979397

>  <pic50_predicted>  (44) 
7.86335341338281

>  <deviation>  (44) 
0.025133728248239725

>  <pic50_predicted_optimized>  (44) 
7.88848714163105

$$$$

     RDKit          2D

 11 11  0  0  0  0  0  0  0  0999 V2000
    5.2500   -1.2990    0.0000 C   0  0  0  0  0  0  0  0  0  0  0  0
    3.7500   -1.2990    0.0000 C   0  0  0  0  0  0  0  0  0  0  0  0
    3.0000   -2.5981    0.0000 N   0  0  0  0  0  4  0  0  0  0  0  0
    3.0000    0.0000    0.0000 C   0  0  0  0  0  0  0  0  0  0  0  0
    1.5000    0.0000    0.0000 C   0  0  0  0  0  0  0  0  0  0  0  0
    0.7500   -1.2990    0.0000 C   0  0  0  0  0  0  0  0  0  0  0  0
   -0.7500   -1.2990    0.0000 C   0  0  0  0  0  0  0  0  0  0  0  0
   -1.5000    0.0000    0.0000 C   0  0  0  0  0  0  0  0  0  0  0  0
   -3.0000    0.0000    0.0000 O   0  0  0  0  0  0  0  0  0  0  0  0
   -0.7500    1.2990    0.0000 C   0  0  0  0  0  0  0  0  0  0  0  0
    0.7500    1.2990    0.0000 C   0  0  0  0  0  0  0  0  0  0  0  0
  1  2  1  0
  2  3  1  0
  2  4  1  0
  4  5  1  0
  5  6  2  0
  6  7  1  0
  7  8  2  0
  8  9  1  0
  8 10  1  0
 10 11  2  0
 11  5  1  0
M  CHG  1   3   1
M  END
>  <id>  (45) 
BACE_273

>  <pic50>  (45) 
3.09691

>  <pic50_predicted>  (45) 
2.92542543770779

>  <deviation>  (45) 
-0.12308043998735019

>  <pic50_predicted_optimized>  (45) 
2.80234499772044

$$$$

     RDKit          2D

 37 39  0  0  0  0  0  0  0  0999 V2000
    5.2500   -1.2990    0.0000 C   0  0  0  0  0  0  0  0  0  0  0  0
    3.7500   -1.2990    0.0000 O   0  0  0  0  0  0  0  0  0  0  0  0
    3.0000    0.0000    0.0000 N   0  0  0  0  0  0  0  0  0  0  0  0
    1.5000    0.0000    0.0000 C   0  0  0  0  0  0  0  0  0  0  0  0
    0.7500   -1.2990    0.0000 C   0  0  0  0  0  0  0  0  0  0  0  0
   -0.7500   -1.2990    0.0000 C   0  0  0  0  0  0  0  0  0  0  0  0
   -1.5000    0.0000    0.0000 C   0  0  0  0  0  0  0  0  0  0  0  0
   -2.6491    0.9642    0.0000 N   0  0  0  0  0  4  0  0  0  0  0  0
   -2.3886    2.4414    0.0000 C   0  0  0  0  0  0  0  0  0  0  0  0
   -3.5377    3.4056    0.0000 C   0  0  0  0  0  0  0  0  0  0  0  0
   -4.9472    2.8925    0.0000 O   0  0  0  0  0  0  0  0  0  0  0  0
   -3.2772    4.8828    0.0000 C   0  0  0  0  0  0  0  0  0  0  0  0
   -4.4263    5.8470    0.0000 C   0  0  0  0  0  0  0  0  0  0  0  0
   -4.1658    7.3242    0.0000 C   0  0  0  0  0  0  0  0  0  0  0  0
   -2.7562    7.8372    0.0000 C   0  0  0  0  0  0  0  0  0  0  0  0
   -2.4958    9.3144    0.0000 C   0  0  0  0  0  0  0  0  0  0  0  0
   -1.0862    9.8275    0.0000 F   0  0  0  0  0  0  0  0  0  0  0  0
   -3.6448   10.2786    0.0000 C   0  0  0  0  0  0  0  0  0  0  0  0
   -5.0544    9.7656    0.0000 C   0  0  0  0  0  0  0  0  0  0  0  0
   -6.2034   10.7298    0.0000 F   0  0  0  0  0  0  0  0  0  0  0  0
   -5.3148    8.2884    0.0000 C   0  0  0  0  0  0  0  0  0  0  0  0
   -1.8676    5.3958    0.0000 N   0  0  0  0  0  0  0  0  0  0  0  0
   -0.7186    4.4316    0.0000 C   0  0  0  0  0  0  0  0  0  0  0  0
    0.6910    4.9447    0.0000 C   0  0  0  0  0  0  0  0  0  0  0  0
   -0.9791    2.9544    0.0000 O   0  0  0  0  0  0  0  0  0  0  0  0
   -2.6491   -0.9642    0.0000 C   0  0  0  0  0  0  0  0  0  0  0  0
   -4.0586   -0.4512    0.0000 C   0  0  0  0  0  0  0  0  0  0  0  0
   -5.2077   -1.4153    0.0000 C   0  0  0  0  0  0  0  0  0  0  0  0
   -4.9472   -2.8925    0.0000 C   0  0  0  0  0  0  0  0  0  0  0  0
   -3.5377   -3.4056    0.0000 C   0  0  0  0  0  0  0  0  0  0  0  0
   -3.2772   -4.8828    0.0000 C   0  0  0  0  0  0  0  0  0  0  0  0
   -4.7544   -5.1433    0.0000 C   0  0  0  0  0  0  0  0  0  0  0  0
   -1.8000   -4.6223    0.0000 C   0  0  0  0  0  0  0  0  0  0  0  0
   -3.0167   -6.3600    0.0000 C   0  0  0  0  0  0  0  0  0  0  0  0
   -2.3886   -2.4414    0.0000 C   0  0  0  0  0  0  0  0  0  0  0  0
   -0.7500    1.2990    0.0000 C   0  0  0  0  0  0  0  0  0  0  0  0
    0.7500    1.2990    0.0000 C   0  0  0  0  0  0  0  0  0  0  0  0
  1  2  1  0
  2  3  1  0
  3  4  1  0
  4  5  1  0
  5  6  1  0
  6  7  1  0
  7  8  1  0
  8  9  1  0
  9 10  1  0
 10 11  1  0
 10 12  1  0
 12 13  1  0
 13 14  1  0
 14 15  2  0
 15 16  1  0
 16 17  1  0
 16 18  2  0
 18 19  1  0
 19 20  1  0
 19 21  2  0
 12 22  1  0
 22 23  1  0
 23 24  1  0
 23 25  2  0
  7 26  1  0
 26 27  2  0
 27 28  1  0
 28 29  2  0
 29 30  1  0
 30 31  1  0
 31 32  1  0
 31 33  1  0
 31 34  1  0
 30 35  2  0
  7 36  1  0
 36 37  1  0
 37  4  1  0
 21 14  1  0
 35 26  1  0
M  CHG  1   8   1
M  END
>  <id>  (46) 
BACE_818

>  <pic50>  (46) 
7

>  <pic50_predicted>  (46) 
6.72949501949126

>  <deviation>  (46) 
0.0008380945379076223

>  <pic50_predicted_optimized>  (46) 
6.730333114029168

$$$$

     RDKit          2D

 17 18  0  0  0  0  0  0  0  0999 V2000
   -1.6638   -6.8914    0.0000 C   0  0  0  0  0  0  0  0  0  0  0  0
   -1.0537   -5.5211    0.0000 C   0  0  0  0  0  0  0  0  0  0  0  0
   -2.4802   -5.0576    0.0000 C   0  0  0  0  0  0  0  0  0  0  0  0
    0.2454   -6.2711    0.0000 N   0  0  0  0  0  0  0  0  0  0  0  0
    1.3601   -5.2674    0.0000 C   0  0  0  0  0  0  0  0  0  0  0  0
    2.8273   -5.5793    0.0000 N   0  0  0  0  0  0  0  0  0  0  0  0
    0.7500   -3.8971    0.0000 N   0  0  0  0  0  0  0  0  0  0  0  0
    1.5000   -2.5981    0.0000 C   0  0  0  0  0  0  0  0  0  0  0  0
    0.7500   -1.2990    0.0000 C   0  0  0  0  0  0  0  0  0  0  0  0
    1.5000    0.0000    0.0000 C   0  0  0  0  0  0  0  0  0  0  0  0
    0.7500    1.2990    0.0000 C   0  0  0  0  0  0  0  0  0  0  0  0
   -0.7500    1.2990    0.0000 C   0  0  0  0  0  0  0  0  0  0  0  0
   -1.5000    0.0000    0.0000 C   0  0  0  0  0  0  0  0  0  0  0  0
   -3.0000    0.0000    0.0000 Cl  0  0  0  0  0  0  0  0  0  0  0  0
   -0.7500   -1.2990    0.0000 C   0  0  0  0  0  0  0  0  0  0  0  0
   -0.7418   -4.0539    0.0000 C   0  0  0  0  0  0  0  0  0  0  0  0
   -1.7455   -2.9392    0.0000 O   0  0  0  0  0  0  0  0  0  0  0  0
  1  2  1  0
  2  3  1  0
  2  4  1  0
  4  5  1  0
  5  6  2  0
  5  7  1  0
  7  8  1  0
  8  9  1  0
  9 10  2  0
 10 11  1  0
 11 12  2  0
 12 13  1  0
 13 14  1  0
 13 15  2  0
  7 16  1  0
 16 17  2  0
 16  2  1  0
 15  9  1  0
M  END
>  <id>  (47) 
BACE_198

>  <pic50>  (47) 
3.154902

>  <pic50_predicted>  (47) 
5.46991315354381

>  <deviation>  (47) 
4.440892098500626e-16

>  <pic50_predicted_optimized>  (47) 
5.469913153543811

$$$$

     RDKit          2D

 34 36  0  0  0  0  0  0  0  0999 V2000
   -3.0000   -5.1962    0.0000 C   0  0  0  0  0  0  0  0  0  0  0  0
   -1.5000   -5.1962    0.0000 C   0  0  0  0  0  0  0  0  0  0  0  0
   -0.7500   -6.4952    0.0000 O   0  0  0  0  0  0  0  0  0  0  0  0
   -0.7500   -3.8971    0.0000 N   0  0  0  0  0  0  0  0  0  0  0  0
    0.7500   -3.8971    0.0000 C   0  0  0  0  0  0  0  0  0  0  0  0
    1.5000   -2.5981    0.0000 C   0  0  0  0  0  0  0  0  0  0  0  0
    0.7500   -1.2990    0.0000 C   0  0  0  0  0  0  0  0  0  0  0  0
    1.5000    0.0000    0.0000 C   0  0  0  0  0  0  0  0  0  0  0  0
    0.7500    1.2990    0.0000 C   0  0  0  0  0  0  0  0  0  0  0  0
    1.5000    2.5981    0.0000 F   0  0  0  0  0  0  0  0  0  0  0  0
   -0.7500    1.2990    0.0000 C   0  0  0  0  0  0  0  0  0  0  0  0
   -1.5000    0.0000    0.0000 C   0  0  0  0  0  0  0  0  0  0  0  0
   -3.0000    0.0000    0.0000 F   0  0  0  0  0  0  0  0  0  0  0  0
   -0.7500   -1.2990    0.0000 C   0  0  0  0  0  0  0  0  0  0  0  0
    1.5000   -5.1962    0.0000 C   0  0  0  0  0  0  0  0  0  0  0  0
    3.0000   -5.1962    0.0000 O   0  0  0  0  0  0  0  0  0  0  0  0
    0.7500   -6.4952    0.0000 C   0  0  0  0  0  0  0  0  0  0  0  0
    1.5000   -7.7942    0.0000 N   0  0  0  0  0  4  0  0  0  0  0  0
    0.7500   -9.0933    0.0000 C   0  0  0  0  0  0  0  0  0  0  0  0
    2.1595   -9.6063    0.0000 C   0  0  0  0  0  0  0  0  0  0  0  0
    3.3086   -8.6421    0.0000 C   0  0  0  0  0  0  0  0  0  0  0  0
    4.7181   -9.1551    0.0000 C   0  0  0  0  0  0  0  0  0  0  0  0
    4.9786  -10.6324    0.0000 C   0  0  0  0  0  0  0  0  0  0  0  0
    3.8296  -11.5965    0.0000 C   0  0  0  0  0  0  0  0  0  0  0  0
    4.0900  -13.0738    0.0000 S   0  0  0  0  0  0  0  0  0  0  0  0
    4.3505  -14.5510    0.0000 C   0  0  0  0  0  0  0  0  0  0  0  0
    5.5672  -12.8133    0.0000 O   0  0  0  0  0  0  0  0  0  0  0  0
    2.6128  -13.3342    0.0000 O   0  0  0  0  0  0  0  0  0  0  0  0
    2.4200  -11.0835    0.0000 C   0  0  0  0  0  0  0  0  0  0  0  0
   -0.3991   -8.1291    0.0000 C   0  0  0  0  0  0  0  0  0  0  0  0
   -1.8086   -8.6421    0.0000 C   0  0  0  0  0  0  0  0  0  0  0  0
   -2.0691  -10.1193    0.0000 C   0  0  0  0  0  0  0  0  0  0  0  0
   -0.9200  -11.0835    0.0000 C   0  0  0  0  0  0  0  0  0  0  0  0
    0.4895  -10.5705    0.0000 C   0  0  0  0  0  0  0  0  0  0  0  0
  1  2  1  0
  2  3  2  0
  2  4  1  0
  4  5  1  0
  5  6  1  0
  6  7  1  0
  7  8  2  0
  8  9  1  0
  9 10  1  0
  9 11  2  0
 11 12  1  0
 12 13  1  0
 12 14  2  0
  5 15  1  0
 15 16  1  0
 15 17  1  0
 17 18  1  0
 18 19  1  0
 19 20  1  0
 20 21  2  0
 21 22  1  0
 22 23  2  0
 23 24  1  0
 24 25  1  0
 25 26  1  0
 25 27  2  0
 25 28  2  0
 24 29  2  0
 19 30  1  0
 30 31  1  0
 31 32  1  0
 32 33  1  0
 33 34  1  0
 14  7  1  0
 34 19  1  0
 29 20  1  0
M  CHG  1  18   1
M  END
>  <id>  (48) 
BACE_1071

>  <pic50>  (48) 
6.1426673

>  <pic50_predicted>  (48) 
6.19020697397218

>  <deviation>  (48) 
0.0013854676794833626

>  <pic50_predicted_optimized>  (48) 
6.191592441651664

$$$$

     RDKit          2D

 34 38  0  0  0  0  0  0  0  0999 V2000
    3.7500   -1.2990    0.0000 C   0  0  0  0  0  0  0  0  0  0  0  0
    3.0000    0.0000    0.0000 O   0  0  0  0  0  0  0  0  0  0  0  0
    1.5000    0.0000    0.0000 C   0  0  0  0  0  0  0  0  0  0  0  0
    0.7500   -1.2990    0.0000 C   0  0  0  0  0  0  0  0  0  0  0  0
   -0.7500   -1.2990    0.0000 C   0  0  0  0  0  0  0  0  0  0  0  0
   -1.5000    0.0000    0.0000 C   0  0  0  0  0  0  0  0  0  0  0  0
   -3.0000    0.0000    0.0000 C   0  0  0  0  0  0  0  0  0  0  0  0
   -2.8432   -1.4918    0.0000 C   0  0  0  0  0  0  0  0  0  0  0  0
   -4.0567   -2.3735    0.0000 C   0  0  0  0  0  0  0  0  0  0  0  0
   -3.8999   -3.8652    0.0000 C   0  0  0  0  0  0  0  0  0  0  0  0
   -2.5296   -4.4753    0.0000 C   0  0  0  0  0  0  0  0  0  0  0  0
   -1.3161   -3.5937    0.0000 C   0  0  0  0  0  0  0  0  0  0  0  0
    0.0542   -4.2038    0.0000 C   0  0  0  0  0  0  0  0  0  0  0  0
    0.2110   -5.6956    0.0000 C   0  0  0  0  0  0  0  0  0  0  0  0
    1.5813   -6.3057    0.0000 C   0  0  0  0  0  0  0  0  0  0  0  0
    2.7949   -5.4240    0.0000 C   0  0  0  0  0  0  0  0  0  0  0  0
    2.6381   -3.9322    0.0000 N   0  0  0  0  0  0  0  0  0  0  0  0
    1.2677   -3.3221    0.0000 C   0  0  0  0  0  0  0  0  0  0  0  0
   -1.4729   -2.1019    0.0000 C   0  0  0  0  0  0  0  0  0  0  0  0
   -4.4672   -0.3119    0.0000 N   0  0  0  0  0  0  0  0  0  0  0  0
   -5.2172    0.9872    0.0000 C   0  0  0  0  0  0  0  0  0  0  0  0
   -6.7090    1.1440    0.0000 N   0  0  0  0  0  0  0  0  0  0  0  0
   -4.2135    2.1019    0.0000 N   0  0  0  0  0  0  0  0  0  0  0  0
   -4.5254    3.5691    0.0000 C   0  0  0  0  0  0  0  0  0  0  0  0
   -2.8432    1.4918    0.0000 C   0  0  0  0  0  0  0  0  0  0  0  0
   -1.5442    2.2418    0.0000 O   0  0  0  0  0  0  0  0  0  0  0  0
   -0.7500    1.2990    0.0000 C   0  0  0  0  0  0  0  0  0  0  0  0
    0.7500    1.2990    0.0000 C   0  0  0  0  0  0  0  0  0  0  0  0
    1.5000    2.5981    0.0000 O   0  0  0  0  0  0  0  0  0  0  0  0
    0.7500    3.8971    0.0000 C   0  0  0  0  0  0  0  0  0  0  0  0
   -0.7418    4.0539    0.0000 C   0  0  0  0  0  0  0  0  0  0  0  0
   -1.0537    5.5211    0.0000 C   0  0  0  0  0  0  0  0  0  0  0  0
    0.2454    6.2711    0.0000 C   0  0  0  0  0  0  0  0  0  0  0  0
    1.3601    5.2674    0.0000 C   0  0  0  0  0  0  0  0  0  0  0  0
  1  2  1  0
  2  3  1  0
  3  4  2  0
  4  5  1  0
  5  6  2  0
  6  7  1  0
  7  8  1  0
  8  9  2  0
  9 10  1  0
 10 11  2  0
 11 12  1  0
 12 13  1  0
 13 14  2  0
 14 15  1  0
 15 16  2  0
 16 17  1  0
 17 18  2  0
 12 19  2  0
  7 20  1  0
 20 21  2  0
 21 22  1  0
 21 23  1  0
 23 24  1  0
 23 25  1  0
 25 26  2  0
  6 27  1  0
 27 28  2  0
 28 29  1  0
 29 30  1  0
 30 31  1  0
 31 32  1  0
 32 33  1  0
 33 34  1  0
 28  3  1  0
 34 30  1  0
 25  7  1  0
 19  8  1  0
 18 13  1  0
M  END
>  <id>  (49) 
BACE_745

>  <pic50>  (49) 
7.154902

>  <pic50_predicted>  (49) 
7.11745924645895

>  <deviation>  (49) 
0.03432435570820788

>  <pic50_predicted_optimized>  (49) 
7.151783602167158

$$$$

     RDKit          2D

 28 31  0  0  0  0  0  0  0  0999 V2000
   -4.7550   -4.2647    0.0000 C   0  0  0  0  0  0  0  0  0  0  0  0
   -3.7513   -3.1500    0.0000 C   0  0  0  0  0  0  0  0  0  0  0  0
   -2.2841   -3.4619    0.0000 C   0  0  0  0  0  0  0  0  0  0  0  0
   -1.1694   -2.4582    0.0000 C   0  0  0  0  0  0  0  0  0  0  0  0
    0.1297   -3.2082    0.0000 C   0  0  0  0  0  0  0  0  0  0  0  0
    1.5000   -2.5981    0.0000 C   0  0  0  0  0  0  0  0  0  0  0  0
    0.7500   -1.2990    0.0000 C   0  0  0  0  0  0  0  0  0  0  0  0
    1.5000    0.0000    0.0000 C   0  0  0  0  0  0  0  0  0  0  0  0
    0.7500    1.2990    0.0000 C   0  0  0  0  0  0  0  0  0  0  0  0
   -0.7500    1.2990    0.0000 C   0  0  0  0  0  0  0  0  0  0  0  0
   -1.5000    0.0000    0.0000 C   0  0  0  0  0  0  0  0  0  0  0  0
   -3.0000    0.0000    0.0000 C   0  0  0  0  0  0  0  0  0  0  0  0
   -3.7500    1.2990    0.0000 C   0  0  0  0  0  0  0  0  0  0  0  0
   -5.2500    1.2990    0.0000 N   0  0  0  0  0  0  0  0  0  0  0  0
   -6.0000    0.0000    0.0000 C   0  0  0  0  0  0  0  0  0  0  0  0
   -5.2500   -1.2990    0.0000 N   0  0  0  0  0  0  0  0  0  0  0  0
   -3.7500   -1.2990    0.0000 C   0  0  0  0  0  0  0  0  0  0  0  0
   -0.7500   -1.2990    0.0000 C   0  0  0  0  0  0  0  0  0  0  0  0
    1.9635   -4.0247    0.0000 N   0  0  0  0  0  0  0  0  0  0  0  0
    3.4635   -4.0247    0.0000 C   0  0  0  0  0  0  0  0  0  0  0  0
    4.3452   -5.2382    0.0000 N   0  0  0  0  0  0  0  0  0  0  0  0
    3.9271   -2.5981    0.0000 N   0  0  0  0  0  0  0  0  0  0  0  0
    5.3536   -2.1346    0.0000 C   0  0  0  0  0  0  0  0  0  0  0  0
    2.7135   -1.7164    0.0000 C   0  0  0  0  0  0  0  0  0  0  0  0
    2.7135   -0.2164    0.0000 O   0  0  0  0  0  0  0  0  0  0  0  0
   -0.1822   -4.6754    0.0000 C   0  0  0  0  0  0  0  0  0  0  0  0
    0.8215   -5.7901    0.0000 C   0  0  0  0  0  0  0  0  0  0  0  0
   -1.6740   -4.8322    0.0000 S   0  0  0  0  0  0  0  0  0  0  0  0
  1  2  1  0
  2  3  1  0
  3  4  2  0
  4  5  1  0
  5  6  1  0
  6  7  1  0
  7  8  2  0
  8  9  1  0
  9 10  2  0
 10 11  1  0
 11 12  1  0
 12 13  2  0
 13 14  1  0
 14 15  2  0
 15 16  1  0
 16 17  2  0
 11 18  2  0
  6 19  1  0
 19 20  2  0
 20 21  1  0
 20 22  1  0
 22 23  1  0
 22 24  1  0
 24 25  2  0
  5 26  2  0
 26 27  1  0
 26 28  1  0
 28  3  1  0
 24  6  1  0
 18  7  1  0
 17 12  1  0
M  END
>  <id>  (50) 
BACE_906

>  <pic50>  (50) 
6.7447276

>  <pic50_predicted>  (50) 
7.20368673115565

>  <deviation>  (50) 
-0.018705144191920455

>  <pic50_predicted_optimized>  (50) 
7.18498158696373

$$$$

     RDKit          2D

 23 25  0  0  0  0  0  0  0  0999 V2000
   -0.8282   -8.3017    0.0000 C   0  0  0  0  0  0  0  0  0  0  0  0
    0.2865   -7.2980    0.0000 N   0  0  0  0  0  0  0  0  0  0  0  0
    1.7537   -7.6099    0.0000 C   0  0  0  0  0  0  0  0  0  0  0  0
    2.3638   -8.9802    0.0000 N   0  0  0  0  0  0  0  0  0  0  0  0
    2.5037   -6.3109    0.0000 N   0  0  0  0  0  0  0  0  0  0  0  0
    1.5000   -5.1962    0.0000 C   0  0  0  0  0  0  0  0  0  0  0  0
    0.7500   -3.8971    0.0000 C   0  0  0  0  0  0  0  0  0  0  0  0
    1.5000   -2.5981    0.0000 C   0  0  0  0  0  0  0  0  0  0  0  0
    0.7500   -1.2990    0.0000 C   0  0  0  0  0  0  0  0  0  0  0  0
    1.5000    0.0000    0.0000 C   0  0  0  0  0  0  0  0  0  0  0  0
    0.7500    1.2990    0.0000 C   0  0  0  0  0  0  0  0  0  0  0  0
   -0.7500    1.2990    0.0000 C   0  0  0  0  0  0  0  0  0  0  0  0
   -1.5000    0.0000    0.0000 C   0  0  0  0  0  0  0  0  0  0  0  0
   -0.7500   -1.2990    0.0000 C   0  0  0  0  0  0  0  0  0  0  0  0
    2.7135   -4.3145    0.0000 C   0  0  0  0  0  0  0  0  0  0  0  0
    4.0838   -4.9246    0.0000 C   0  0  0  0  0  0  0  0  0  0  0  0
    4.2406   -6.4164    0.0000 C   0  0  0  0  0  0  0  0  0  0  0  0
    5.6110   -7.0265    0.0000 C   0  0  0  0  0  0  0  0  0  0  0  0
    6.8245   -6.1448    0.0000 C   0  0  0  0  0  0  0  0  0  0  0  0
    6.6677   -4.6530    0.0000 C   0  0  0  0  0  0  0  0  0  0  0  0
    5.2974   -4.0429    0.0000 C   0  0  0  0  0  0  0  0  0  0  0  0
    0.1297   -5.8063    0.0000 C   0  0  0  0  0  0  0  0  0  0  0  0
   -1.1694   -5.0563    0.0000 O   0  0  0  0  0  0  0  0  0  0  0  0
  1  2  1  0
  2  3  1  0
  3  4  2  0
  3  5  1  0
  5  6  1  0
  6  7  1  6
  7  8  1  0
  8  9  1  0
  9 10  1  0
 10 11  1  0
 11 12  1  0
 12 13  1  0
 13 14  1  0
  6 15  1  0
 15 16  1  0
 16 17  1  0
 17 18  1  0
 18 19  1  0
 19 20  1  0
 20 21  1  0
  6 22  1  0
 22 23  2  0
 22  2  1  0
 14  9  1  0
 21 16  1  0
M  END
>  <id>  (51) 
BACE_137

>  <pic50>  (51) 
6.2182446

>  <pic50_predicted>  (51) 
5.56241187907536

>  <deviation>  (51) 
1.170971251894023

>  <pic50_predicted_optimized>  (51) 
6.733383130969383

$$$$

     RDKit          2D

 20 22  0  0  0  0  0  0  0  0999 V2000
    2.3638   -6.3821    0.0000 C   0  0  0  0  0  0  0  0  0  0  0  0
    1.7537   -5.0118    0.0000 N   0  0  0  0  0  0  0  0  0  0  0  0
    2.5037   -3.7128    0.0000 C   0  0  0  0  0  0  0  0  0  0  0  0
    3.9955   -3.5560    0.0000 O   0  0  0  0  0  0  0  0  0  0  0  0
    1.5000   -2.5981    0.0000 C   0  0  0  0  0  0  0  0  0  0  0  0
    0.7500   -1.2990    0.0000 C   0  0  0  0  0  0  0  0  0  0  0  0
    1.5000    0.0000    0.0000 C   0  0  0  0  0  0  0  0  0  0  0  0
    0.7500    1.2990    0.0000 C   0  0  0  0  0  0  0  0  0  0  0  0
   -0.7500    1.2990    0.0000 C   0  0  0  0  0  0  0  0  0  0  0  0
   -1.5000    0.0000    0.0000 C   0  0  0  0  0  0  0  0  0  0  0  0
   -0.7500   -1.2990    0.0000 C   0  0  0  0  0  0  0  0  0  0  0  0
    2.7135   -1.7164    0.0000 C   0  0  0  0  0  0  0  0  0  0  0  0
    4.0838   -2.3265    0.0000 C   0  0  0  0  0  0  0  0  0  0  0  0
    5.2974   -1.4448    0.0000 C   0  0  0  0  0  0  0  0  0  0  0  0
    5.1406    0.0470    0.0000 C   0  0  0  0  0  0  0  0  0  0  0  0
    3.7703    0.6571    0.0000 C   0  0  0  0  0  0  0  0  0  0  0  0
    2.5567   -0.2246    0.0000 C   0  0  0  0  0  0  0  0  0  0  0  0
    0.1297   -3.2082    0.0000 N   0  0  0  0  0  0  0  0  0  0  0  0
    0.2865   -4.7000    0.0000 C   0  0  0  0  0  0  0  0  0  0  0  0
   -0.8282   -5.7037    0.0000 N   0  0  0  0  0  0  0  0  0  0  0  0
  1  2  1  0
  2  3  1  0
  3  4  2  0
  3  5  1  0
  5  6  1  0
  6  7  1  0
  7  8  1  0
  8  9  1  0
  9 10  1  0
 10 11  1  0
  5 12  1  0
 12 13  1  0
 13 14  1  0
 14 15  1  0
 15 16  1  0
 16 17  1  0
  5 18  1  0
 18 19  2  0
 19 20  1  0
 19  2  1  0
 11  6  1  0
 17 12  1  0
M  END
>  <id>  (52) 
BACE_1125

>  <pic50>  (52) 
5.9665761

>  <pic50_predicted>  (52) 
5.19478053594173

>  <deviation>  (52) 
1.1709712518940232

>  <pic50_predicted_optimized>  (52) 
6.3657517878357535

$$$$

     RDKit          2D

 26 28  0  0  0  0  0  0  0  0999 V2000
   -8.8374   -1.1051    0.0000 C   0  0  0  0  0  0  0  0  0  0  0  0
   -7.7227   -2.1088    0.0000 N   0  0  0  0  0  0  0  0  0  0  0  0
   -8.0346   -3.5760    0.0000 C   0  0  0  0  0  0  0  0  0  0  0  0
   -9.4612   -4.0396    0.0000 C   0  0  0  0  0  0  0  0  0  0  0  0
  -10.5759   -3.0359    0.0000 C   0  0  0  0  0  0  0  0  0  0  0  0
  -12.0025   -3.4994    0.0000 C   0  0  0  0  0  0  0  0  0  0  0  0
  -12.3143   -4.9666    0.0000 C   0  0  0  0  0  0  0  0  0  0  0  0
  -11.1996   -5.9703    0.0000 C   0  0  0  0  0  0  0  0  0  0  0  0
  -11.5115   -7.4375    0.0000 F   0  0  0  0  0  0  0  0  0  0  0  0
   -9.7730   -5.5068    0.0000 C   0  0  0  0  0  0  0  0  0  0  0  0
   -6.2961   -1.6453    0.0000 C   0  0  0  0  0  0  0  0  0  0  0  0
   -5.9843   -0.1781    0.0000 O   0  0  0  0  0  0  0  0  0  0  0  0
   -5.1814   -2.6490    0.0000 C   0  0  0  0  0  0  0  0  0  0  0  0
   -3.7548   -2.1855    0.0000 C   0  0  0  0  0  0  0  0  0  0  0  0
   -2.6401   -3.1891    0.0000 C   0  0  0  0  0  0  0  0  0  0  0  0
   -1.2135   -2.7256    0.0000 N   0  0  0  0  0  0  0  0  0  0  0  0
   -0.0000   -3.6073    0.0000 C   0  0  0  0  0  0  0  0  0  0  0  0
    0.0000   -5.1073    0.0000 N   0  0  0  0  0  0  0  0  0  0  0  0
    1.2135   -2.7256    0.0000 N   0  0  0  0  0  0  0  0  0  0  0  0
    0.7500   -1.2990    0.0000 C   0  0  0  0  0  0  0  0  0  0  0  0
    1.5000    0.0000    0.0000 C   0  0  0  0  0  0  0  0  0  0  0  0
    0.7500    1.2990    0.0000 C   0  0  0  0  0  0  0  0  0  0  0  0
    1.5000    2.5981    0.0000 Cl  0  0  0  0  0  0  0  0  0  0  0  0
   -0.7500    1.2990    0.0000 C   0  0  0  0  0  0  0  0  0  0  0  0
   -1.5000    0.0000    0.0000 C   0  0  0  0  0  0  0  0  0  0  0  0
   -0.7500   -1.2990    0.0000 C   0  0  0  0  0  0  0  0  0  0  0  0
  1  2  1  0
  2  3  1  0
  3  4  1  0
  4  5  2  0
  5  6  1  0
  6  7  2  0
  7  8  1  0
  8  9  1  0
  8 10  2  0
  2 11  1  0
 11 12  2  0
 11 13  1  0
 13 14  1  0
 14 15  1  0
 15 16  1  0
 16 17  1  0
 17 18  1  0
 17 19  2  0
 19 20  1  0
 20 21  2  0
 21 22  1  0
 22 23  1  0
 22 24  2  0
 24 25  1  0
 25 26  2  0
 10  4  1  0
 26 16  1  0
 26 20  1  0
M  END
>  <id>  (53) 
BACE_1518

>  <pic50>  (53) 
3.7121983

>  <pic50_predicted>  (53) 
3.74457681054408

>  <deviation>  (53) 
-0.006725816460543788

>  <pic50_predicted_optimized>  (53) 
3.7378509940835363

$$$$

     RDKit          2D

 33 37  0  0  0  0  0  0  0  0999 V2000
   -0.2225    7.7227    0.0000 C   0  0  0  0  0  0  0  0  0  0  0  0
   -0.6860    6.2961    0.0000 O   0  0  0  0  0  0  0  0  0  0  0  0
    0.3177    5.1814    0.0000 C   0  0  0  0  0  0  0  0  0  0  0  0
    1.7849    5.4933    0.0000 C   0  0  0  0  0  0  0  0  0  0  0  0
    2.7886    4.3786    0.0000 C   0  0  0  0  0  0  0  0  0  0  0  0
    2.3250    2.9520    0.0000 C   0  0  0  0  0  0  0  0  0  0  0  0
    0.8578    2.6401    0.0000 C   0  0  0  0  0  0  0  0  0  0  0  0
    0.3943    1.2135    0.0000 N   0  0  0  0  0  0  0  0  0  0  0  0
    1.2760    0.0000    0.0000 C   0  0  0  0  0  0  0  0  0  0  0  0
    0.3943   -1.2135    0.0000 C   0  0  0  0  0  0  0  0  0  0  0  0
    0.7062   -2.6807    0.0000 C   0  0  0  0  0  0  0  0  0  0  0  0
    2.1328   -3.1443    0.0000 O   0  0  0  0  0  0  0  0  0  0  0  0
   -0.4086   -3.6844    0.0000 N   0  0  0  0  0  0  0  0  0  0  0  0
   -0.0967   -5.1517    0.0000 C   0  0  0  0  0  0  0  0  0  0  0  0
   -1.8351   -3.2209    0.0000 C   0  0  0  0  0  0  0  0  0  0  0  0
   -2.9499   -4.2246    0.0000 N   0  0  0  0  0  0  0  0  0  0  0  0
   -2.1470   -1.7537    0.0000 N   0  0  0  0  0  0  0  0  0  0  0  0
   -1.0323   -0.7500    0.0000 C   0  0  0  0  0  0  0  0  0  0  0  0
   -2.4026   -0.1399    0.0000 C   0  0  0  0  0  0  0  0  0  0  0  0
   -3.7016   -0.8899    0.0000 C   0  0  0  0  0  0  0  0  0  0  0  0
   -4.8164    0.1138    0.0000 C   0  0  0  0  0  0  0  0  0  0  0  0
   -6.2836   -0.1981    0.0000 C   0  0  0  0  0  0  0  0  0  0  0  0
   -7.2873    0.9167    0.0000 C   0  0  0  0  0  0  0  0  0  0  0  0
   -8.7545    0.6048    0.0000 C   0  0  0  0  0  0  0  0  0  0  0  0
   -9.2180   -0.8218    0.0000 C   0  0  0  0  0  0  0  0  0  0  0  0
   -8.2143   -1.9365    0.0000 C   0  0  0  0  0  0  0  0  0  0  0  0
   -8.6779   -3.3631    0.0000 C   0  0  0  0  0  0  0  0  0  0  0  0
   -9.1414   -4.7897    0.0000 N   0  0  0  0  0  0  0  0  0  0  0  0
   -6.7471   -1.6247    0.0000 C   0  0  0  0  0  0  0  0  0  0  0  0
   -4.2063    1.4841    0.0000 C   0  0  0  0  0  0  0  0  0  0  0  0
   -2.7145    1.3273    0.0000 S   0  0  0  0  0  0  0  0  0  0  0  0
   -1.0323    0.7500    0.0000 C   0  0  0  0  0  0  0  0  0  0  0  0
   -0.1459    3.7548    0.0000 N   0  0  0  0  0  0  0  0  0  0  0  0
  1  2  1  0
  2  3  1  0
  3  4  2  0
  4  5  1  0
  5  6  2  0
  6  7  1  0
  7  8  1  0
  8  9  1  0
  9 10  1  0
 10 11  1  0
 11 12  2  0
 11 13  1  0
 13 14  1  0
 13 15  1  0
 15 16  1  0
 15 17  2  0
 17 18  1  0
 18 19  1  0
 19 20  2  0
 20 21  1  0
 21 22  1  0
 22 23  2  0
 23 24  1  0
 24 25  2  0
 25 26  1  0
 26 27  1  0
 27 28  3  0
 26 29  2  0
 21 30  2  0
 30 31  1  0
 18 32  1  0
  7 33  2  0
 33  3  1  0
 32  8  1  0
 18 10  1  0
 31 19  1  0
 29 22  1  0
M  END
>  <id>  (54) 
BACE_238

>  <pic50>  (54) 
9

>  <pic50_predicted>  (54) 
7.95398323538468

>  <deviation>  (54) 
2.4424906541753444e-15

>  <pic50_predicted_optimized>  (54) 
7.953983235384682

$$$$

     RDKit          2D

 28 31  0  0  0  0  0  0  0  0999 V2000
    3.0000    0.0000    0.0000 C   0  0  0  0  0  0  0  0  0  0  0  0
    1.5000    0.0000    0.0000 C   0  0  0  0  0  0  0  0  0  0  0  0
    0.7500   -1.2990    0.0000 C   0  0  0  0  0  0  0  0  0  0  0  0
   -0.7500   -1.2990    0.0000 C   0  0  0  0  0  0  0  0  0  0  0  0
   -1.5000   -2.5981    0.0000 C   0  0  0  0  0  0  0  0  0  0  0  0
   -0.1297   -3.2082    0.0000 C   0  0  0  0  0  0  0  0  0  0  0  0
    0.0271   -4.7000    0.0000 C   0  0  0  0  0  0  0  0  0  0  0  0
    1.3974   -5.3101    0.0000 C   0  0  0  0  0  0  0  0  0  0  0  0
    2.6110   -4.4284    0.0000 C   0  0  0  0  0  0  0  0  0  0  0  0
    2.4542   -2.9366    0.0000 C   0  0  0  0  0  0  0  0  0  0  0  0
    3.6677   -2.0549    0.0000 C   0  0  0  0  0  0  0  0  0  0  0  0
    5.0380   -2.6650    0.0000 C   0  0  0  0  0  0  0  0  0  0  0  0
    6.2515   -1.7834    0.0000 N   0  0  0  0  0  0  0  0  0  0  0  0
    6.0947   -0.2916    0.0000 C   0  0  0  0  0  0  0  0  0  0  0  0
    4.7244    0.3185    0.0000 N   0  0  0  0  0  0  0  0  0  0  0  0
    3.5109   -0.5631    0.0000 C   0  0  0  0  0  0  0  0  0  0  0  0
    1.0838   -2.3265    0.0000 C   0  0  0  0  0  0  0  0  0  0  0  0
   -1.9635   -4.0247    0.0000 N   0  0  0  0  0  0  0  0  0  0  0  0
   -3.4635   -4.0247    0.0000 C   0  0  0  0  0  0  0  0  0  0  0  0
   -4.3452   -5.2382    0.0000 N   0  0  0  0  0  0  0  0  0  0  0  0
   -3.9271   -2.5981    0.0000 N   0  0  0  0  0  0  0  0  0  0  0  0
   -5.3536   -2.1346    0.0000 C   0  0  0  0  0  0  0  0  0  0  0  0
   -2.7135   -1.7164    0.0000 C   0  0  0  0  0  0  0  0  0  0  0  0
   -2.7135   -0.2164    0.0000 O   0  0  0  0  0  0  0  0  0  0  0  0
   -1.5000    0.0000    0.0000 C   0  0  0  0  0  0  0  0  0  0  0  0
   -0.7500    1.2990    0.0000 C   0  0  0  0  0  0  0  0  0  0  0  0
   -1.5000    2.5981    0.0000 C   0  0  0  0  0  0  0  0  0  0  0  0
    0.7500    1.2990    0.0000 N   0  0  0  0  0  0  0  0  0  0  0  0
  1  2  1  0
  2  3  2  0
  3  4  1  0
  5  4  1  6
  5  6  1  0
  6  7  2  0
  7  8  1  0
  8  9  2  0
  9 10  1  0
 10 11  1  0
 11 12  2  0
 12 13  1  0
 13 14  2  0
 14 15  1  0
 15 16  2  0
 10 17  2  0
  5 18  1  0
 18 19  2  0
 19 20  1  0
 19 21  1  0
 21 22  1  0
 21 23  1  0
 23 24  2  0
  4 25  2  0
 25 26  1  0
 26 27  1  0
 26 28  2  0
 28  2  1  0
 23  5  1  0
 17  6  1  0
 16 11  1  0
M  END
>  <id>  (55) 
BACE_873

>  <pic50>  (55) 
6.8538718

>  <pic50_predicted>  (55) 
7.10765611104083

>  <deviation>  (55) 
-0.18073948477751106

>  <pic50_predicted_optimized>  (55) 
6.926916626263319

$$$$

     RDKit          2D

 27 30  0  0  0  0  0  0  0  0999 V2000
    3.0000    0.0000    0.0000 C   0  0  0  0  0  0  0  0  0  0  0  0
    1.5000    0.0000    0.0000 C   0  0  0  0  0  0  0  0  0  0  0  0
    0.7500   -1.2990    0.0000 C   0  0  0  0  0  0  0  0  0  0  0  0
   -0.7500   -1.2990    0.0000 C   0  0  0  0  0  0  0  0  0  0  0  0
   -1.5000   -2.5981    0.0000 C   0  0  0  0  0  0  0  0  0  0  0  0
   -0.1297   -3.2082    0.0000 C   0  0  0  0  0  0  0  0  0  0  0  0
    0.0271   -4.7000    0.0000 C   0  0  0  0  0  0  0  0  0  0  0  0
    1.3974   -5.3101    0.0000 C   0  0  0  0  0  0  0  0  0  0  0  0
    2.6110   -4.4284    0.0000 C   0  0  0  0  0  0  0  0  0  0  0  0
    2.4542   -2.9366    0.0000 C   0  0  0  0  0  0  0  0  0  0  0  0
    3.6677   -2.0549    0.0000 C   0  0  0  0  0  0  0  0  0  0  0  0
    5.0380   -2.6650    0.0000 C   0  0  0  0  0  0  0  0  0  0  0  0
    6.2515   -1.7834    0.0000 N   0  0  0  0  0  0  0  0  0  0  0  0
    6.0947   -0.2916    0.0000 C   0  0  0  0  0  0  0  0  0  0  0  0
    4.7244    0.3185    0.0000 N   0  0  0  0  0  0  0  0  0  0  0  0
    3.5109   -0.5631    0.0000 C   0  0  0  0  0  0  0  0  0  0  0  0
    1.0838   -2.3265    0.0000 C   0  0  0  0  0  0  0  0  0  0  0  0
   -1.9635   -4.0247    0.0000 N   0  0  0  0  0  0  0  0  0  0  0  0
   -3.4635   -4.0247    0.0000 C   0  0  0  0  0  0  0  0  0  0  0  0
   -4.3452   -5.2382    0.0000 N   0  0  0  0  0  0  0  0  0  0  0  0
   -3.9271   -2.5981    0.0000 N   0  0  0  0  0  0  0  0  0  0  0  0
   -5.3536   -2.1346    0.0000 C   0  0  0  0  0  0  0  0  0  0  0  0
   -2.7135   -1.7164    0.0000 C   0  0  0  0  0  0  0  0  0  0  0  0
   -2.7135   -0.2164    0.0000 O   0  0  0  0  0  0  0  0  0  0  0  0
   -1.5000    0.0000    0.0000 C   0  0  0  0  0  0  0  0  0  0  0  0
   -0.7500    1.2990    0.0000 C   0  0  0  0  0  0  0  0  0  0  0  0
    0.7500    1.2990    0.0000 N   0  0  0  0  0  0  0  0  0  0  0  0
  1  2  1  0
  2  3  2  0
  3  4  1  0
  5  4  1  6
  5  6  1  0
  6  7  2  0
  7  8  1  0
  8  9  2  0
  9 10  1  0
 10 11  1  0
 11 12  2  0
 12 13  1  0
 13 14  2  0
 14 15  1  0
 15 16  2  0
 10 17  2  0
  5 18  1  0
 18 19  2  0
 19 20  1  0
 19 21  1  0
 21 22  1  0
 21 23  1  0
 23 24  2  0
  4 25  2  0
 25 26  1  0
 26 27  2  0
 27  2  1  0
 23  5  1  0
 17  6  1  0
 16 11  1  0
M  END
>  <id>  (56) 
BACE_777

>  <pic50>  (56) 
7.09691

>  <pic50_predicted>  (56) 
7.08127944922797

>  <deviation>  (56) 
0.04890997284144813

>  <pic50_predicted_optimized>  (56) 
7.130189422069418

$$$$

     RDKit          2D

 27 30  0  0  0  0  0  0  0  0999 V2000
    5.2500   -1.2990    0.0000 C   0  0  0  0  0  0  0  0  0  0  0  0
    3.7500   -1.2990    0.0000 O   0  0  0  0  0  0  0  0  0  0  0  0
    3.0000    0.0000    0.0000 C   0  0  0  0  0  0  0  0  0  0  0  0
    1.5000    0.0000    0.0000 C   0  0  0  0  0  0  0  0  0  0  0  0
    0.7500   -1.2990    0.0000 C   0  0  0  0  0  0  0  0  0  0  0  0
   -0.7500   -1.2990    0.0000 C   0  0  0  0  0  0  0  0  0  0  0  0
   -1.5000    0.0000    0.0000 C   0  0  0  0  0  0  0  0  0  0  0  0
   -0.7500    1.2990    0.0000 C   0  0  0  0  0  0  0  0  0  0  0  0
   -1.5000    2.5981    0.0000 C   0  0  0  0  0  0  0  0  0  0  0  0
   -0.7500    3.8971    0.0000 C   0  0  0  0  0  0  0  0  0  0  0  0
   -1.5000    5.1962    0.0000 C   0  0  0  0  0  0  0  0  0  0  0  0
   -3.0000    5.1962    0.0000 C   0  0  0  0  0  0  0  0  0  0  0  0
   -3.7500    6.4952    0.0000 C   0  0  0  0  0  0  0  0  0  0  0  0
   -5.0490    7.2452    0.0000 C   0  0  0  0  0  0  0  0  0  0  0  0
   -3.7500    7.9952    0.0000 C   0  0  0  0  0  0  0  0  0  0  0  0
   -3.0000    9.2942    0.0000 C   0  0  0  0  0  0  0  0  0  0  0  0
   -1.5000    9.2942    0.0000 C   0  0  0  0  0  0  0  0  0  0  0  0
   -0.7500   10.5933    0.0000 C   0  0  0  0  0  0  0  0  0  0  0  0
    0.7500   10.5933    0.0000 O   0  0  0  0  0  0  0  0  0  0  0  0
   -1.5000   11.8923    0.0000 N   0  0  0  0  0  0  0  0  0  0  0  0
   -0.7500   13.1913    0.0000 C   0  0  0  0  0  0  0  0  0  0  0  0
   -3.0000   11.8923    0.0000 C   0  0  0  0  0  0  0  0  0  0  0  0
   -3.7500   13.1913    0.0000 N   0  0  0  0  0  0  0  0  0  0  0  0
   -3.7500   10.5933    0.0000 N   0  0  0  0  0  0  0  0  0  0  0  0
   -3.7500    3.8971    0.0000 C   0  0  0  0  0  0  0  0  0  0  0  0
   -3.0000    2.5981    0.0000 C   0  0  0  0  0  0  0  0  0  0  0  0
    0.7500    1.2990    0.0000 C   0  0  0  0  0  0  0  0  0  0  0  0
  1  2  1  0
  2  3  1  0
  3  4  1  0
  4  5  2  0
  5  6  1  0
  6  7  2  0
  7  8  1  0
  8  9  1  0
  9 10  2  0
 10 11  1  0
 11 12  2  0
 12 13  1  0
 13 14  1  0
 14 15  1  0
 15 16  1  0
 16 17  2  0
 17 18  1  0
 18 19  2  0
 18 20  1  0
 20 21  1  0
 20 22  1  0
 22 23  1  0
 22 24  2  0
 12 25  1  0
 25 26  2  0
  8 27  2  0
 27  4  1  0
 26  9  1  0
 15 13  1  0
 24 16  1  0
M  END
>  <id>  (57) 
BACE_1423

>  <pic50>  (57) 
4.6143937

>  <pic50_predicted>  (57) 
4.81612414683229

>  <deviation>  (57) 
0.017637311157017263

>  <pic50_predicted_optimized>  (57) 
4.833761457989307

$$$$

     RDKit          2D

 35 39  0  0  0  0  0  0  0  0999 V2000
    2.3907    1.0037    0.0000 C   0  0  0  0  0  0  0  0  0  0  0  0
    1.2760    0.0000    0.0000 C   0  0  0  0  0  0  0  0  0  0  0  0
    2.3907   -1.0037    0.0000 C   0  0  0  0  0  0  0  0  0  0  0  0
    0.3943    1.2135    0.0000 C   0  0  0  0  0  0  0  0  0  0  0  0
   -1.0323    0.7500    0.0000 N   0  0  0  0  0  0  0  0  0  0  0  0
   -1.0323   -0.7500    0.0000 C   0  0  0  0  0  0  0  0  0  0  0  0
    0.3943   -1.2135    0.0000 N   0  0  0  0  0  0  0  0  0  0  0  0
   -2.4589   -1.2135    0.0000 C   0  0  0  0  0  0  0  0  0  0  0  0
   -1.8488   -2.5838    0.0000 C   0  0  0  0  0  0  0  0  0  0  0  0
   -2.7304   -3.7974    0.0000 C   0  0  0  0  0  0  0  0  0  0  0  0
   -2.1203   -5.1677    0.0000 C   0  0  0  0  0  0  0  0  0  0  0  0
   -0.6286   -5.3245    0.0000 C   0  0  0  0  0  0  0  0  0  0  0  0
   -0.0185   -6.6948    0.0000 O   0  0  0  0  0  0  0  0  0  0  0  0
   -0.9001   -7.9083    0.0000 C   0  0  0  0  0  0  0  0  0  0  0  0
   -1.7818   -9.1218    0.0000 F   0  0  0  0  0  0  0  0  0  0  0  0
    0.3134   -8.7900    0.0000 F   0  0  0  0  0  0  0  0  0  0  0  0
   -2.1137   -7.0266    0.0000 F   0  0  0  0  0  0  0  0  0  0  0  0
    0.2531   -4.1110    0.0000 C   0  0  0  0  0  0  0  0  0  0  0  0
   -0.3570   -2.7406    0.0000 C   0  0  0  0  0  0  0  0  0  0  0  0
   -3.7579   -1.9635    0.0000 C   0  0  0  0  0  0  0  0  0  0  0  0
   -5.0569   -1.2135    0.0000 C   0  0  0  0  0  0  0  0  0  0  0  0
   -6.3560   -1.9635    0.0000 C   0  0  0  0  0  0  0  0  0  0  0  0
   -6.3560   -3.4635    0.0000 C   0  0  0  0  0  0  0  0  0  0  0  0
   -5.0569   -4.2135    0.0000 C   0  0  0  0  0  0  0  0  0  0  0  0
   -5.0569   -5.7135    0.0000 C   0  0  0  0  0  0  0  0  0  0  0  0
   -3.7579   -6.4635    0.0000 C   0  0  0  0  0  0  0  0  0  0  0  0
   -3.7579   -7.9635    0.0000 C   0  0  0  0  0  0  0  0  0  0  0  0
   -5.0569   -8.7135    0.0000 C   0  0  0  0  0  0  0  0  0  0  0  0
   -6.3560   -7.9635    0.0000 N   0  0  0  0  0  0  0  0  0  0  0  0
   -6.3560   -6.4635    0.0000 C   0  0  0  0  0  0  0  0  0  0  0  0
   -7.6550   -5.7135    0.0000 F   0  0  0  0  0  0  0  0  0  0  0  0
   -3.7579   -3.4635    0.0000 C   0  0  0  0  0  0  0  0  0  0  0  0
   -3.3405    0.0000    0.0000 N   0  0  0  0  0  4  0  0  0  0  0  0
   -2.4589    1.2135    0.0000 C   0  0  0  0  0  0  0  0  0  0  0  0
   -2.9224    2.6401    0.0000 N   0  0  0  0  0  0  0  0  0  0  0  0
  1  2  1  0
  2  3  1  0
  2  4  1  0
  4  5  1  0
  5  6  1  0
  6  7  2  0
  6  8  1  0
  8  9  1  6
  9 10  2  0
 10 11  1  0
 11 12  2  0
 12 13  1  0
 13 14  1  0
 14 15  1  0
 14 16  1  0
 14 17  1  0
 12 18  1  0
 18 19  2  0
  8 20  1  0
 20 21  2  0
 21 22  1  0
 22 23  2  0
 23 24  1  0
 24 25  1  0
 25 26  2  0
 26 27  1  0
 27 28  2  0
 28 29  1  0
 29 30  2  0
 30 31  1  0
 24 32  2  0
  8 33  1  0
 33 34  2  0
 34 35  1  0
  7  2  1  0
 19  9  1  0
 32 20  1  0
 34  5  1  0
 30 25  1  0
M  CHG  1  33   1
M  END
>  <id>  (58) 
BACE_910

>  <pic50>  (58) 
6.7212462

>  <pic50_predicted>  (58) 
7.06849016153063

>  <deviation>  (58) 
0.11288399104200256

>  <pic50_predicted_optimized>  (58) 
7.181374152572633

$$$$

     RDKit          2D

 27 30  0  0  0  0  0  0  0  0999 V2000
    3.7500   -1.2990    0.0000 C   0  0  0  0  0  0  0  0  0  0  0  0
    3.0000    0.0000    0.0000 O   0  0  0  0  0  0  0  0  0  0  0  0
    1.5000    0.0000    0.0000 C   0  0  0  0  0  0  0  0  0  0  0  0
    0.7500   -1.2990    0.0000 C   0  0  0  0  0  0  0  0  0  0  0  0
   -0.7500   -1.2990    0.0000 C   0  0  0  0  0  0  0  0  0  0  0  0
   -1.5000    0.0000    0.0000 C   0  0  0  0  0  0  0  0  0  0  0  0
   -0.7500    1.2990    0.0000 C   0  0  0  0  0  0  0  0  0  0  0  0
   -1.5000    2.5981    0.0000 C   0  0  0  0  0  0  0  0  0  0  0  0
   -0.7500    3.8971    0.0000 C   0  0  0  0  0  0  0  0  0  0  0  0
   -1.5000    5.1962    0.0000 C   0  0  0  0  0  0  0  0  0  0  0  0
   -3.0000    5.1962    0.0000 C   0  0  0  0  0  0  0  0  0  0  0  0
   -3.7500    3.8971    0.0000 C   0  0  0  0  0  0  0  0  0  0  0  0
   -5.2500    3.8971    0.0000 C   0  0  0  0  0  0  0  0  0  0  0  0
   -6.5490    3.1471    0.0000 C   0  0  0  0  0  0  0  0  0  0  0  0
   -6.5490    4.6471    0.0000 C   0  0  0  0  0  0  0  0  0  0  0  0
   -7.2990    5.9462    0.0000 C   0  0  0  0  0  0  0  0  0  0  0  0
   -5.8895    6.4592    0.0000 C   0  0  0  0  0  0  0  0  0  0  0  0
   -8.4481    4.9820    0.0000 C   0  0  0  0  0  0  0  0  0  0  0  0
   -9.8576    5.4950    0.0000 C   0  0  0  0  0  0  0  0  0  0  0  0
  -11.0067    4.5308    0.0000 O   0  0  0  0  0  0  0  0  0  0  0  0
  -10.1181    6.9722    0.0000 N   0  0  0  0  0  0  0  0  0  0  0  0
  -11.5277    7.4852    0.0000 C   0  0  0  0  0  0  0  0  0  0  0  0
   -8.9690    7.9364    0.0000 C   0  0  0  0  0  0  0  0  0  0  0  0
   -9.2295    9.4136    0.0000 N   0  0  0  0  0  0  0  0  0  0  0  0
   -7.5595    7.4234    0.0000 N   0  0  0  0  0  0  0  0  0  0  0  0
   -3.0000    2.5981    0.0000 C   0  0  0  0  0  0  0  0  0  0  0  0
    0.7500    1.2990    0.0000 C   0  0  0  0  0  0  0  0  0  0  0  0
  1  2  1  0
  2  3  1  0
  3  4  2  0
  4  5  1  0
  5  6  2  0
  6  7  1  0
  7  8  1  0
  8  9  2  0
  9 10  1  0
 10 11  2  0
 11 12  1  0
 12 13  1  0
 13 14  1  0
 14 15  1  0
 15 16  1  0
 16 17  1  0
 16 18  1  0
 18 19  1  0
 19 20  2  0
 19 21  1  0
 21 22  1  0
 21 23  1  0
 23 24  1  0
 23 25  2  0
 12 26  2  0
  7 27  2  0
 27  3  1  0
 26  8  1  0
 15 13  1  0
 25 16  1  0
M  END
>  <id>  (59) 
BACE_1261

>  <pic50>  (59) 
5.4814858

>  <pic50_predicted>  (59) 
5.80826856633331

>  <deviation>  (59) 
-0.005283324273008008

>  <pic50_predicted_optimized>  (59) 
5.802985242060302

$$$$

     RDKit          2D

 20 22  0  0  0  0  0  0  0  0999 V2000
   -0.8282   -5.7037    0.0000 C   0  0  0  0  0  0  0  0  0  0  0  0
    0.2865   -4.7000    0.0000 N   0  0  0  0  0  0  0  0  0  0  0  0
    1.7537   -5.0118    0.0000 C   0  0  0  0  0  0  0  0  0  0  0  0
    2.3638   -6.3821    0.0000 N   0  0  0  0  0  4  0  0  0  0  0  0
    2.5037   -3.7128    0.0000 N   0  0  0  0  0  0  0  0  0  0  0  0
    1.5000   -2.5981    0.0000 C   0  0  0  0  0  0  0  0  0  0  0  0
    0.7500   -1.2990    0.0000 C   0  0  0  0  0  0  0  0  0  0  0  0
    1.5000    0.0000    0.0000 C   0  0  0  0  0  0  0  0  0  0  0  0
    0.7500    1.2990    0.0000 C   0  0  0  0  0  0  0  0  0  0  0  0
   -0.7500    1.2990    0.0000 C   0  0  0  0  0  0  0  0  0  0  0  0
   -1.5000    0.0000    0.0000 C   0  0  0  0  0  0  0  0  0  0  0  0
   -0.7500   -1.2990    0.0000 C   0  0  0  0  0  0  0  0  0  0  0  0
    2.7135   -1.7164    0.0000 C   0  0  0  0  0  0  0  0  0  0  0  0
    4.0838   -2.3265    0.0000 C   0  0  0  0  0  0  0  0  0  0  0  0
    5.2974   -1.4448    0.0000 C   0  0  0  0  0  0  0  0  0  0  0  0
    5.1406    0.0470    0.0000 C   0  0  0  0  0  0  0  0  0  0  0  0
    3.7703    0.6571    0.0000 C   0  0  0  0  0  0  0  0  0  0  0  0
    2.5567   -0.2246    0.0000 C   0  0  0  0  0  0  0  0  0  0  0  0
    0.1297   -3.2082    0.0000 C   0  0  0  0  0  0  0  0  0  0  0  0
   -1.1694   -2.4582    0.0000 O   0  0  0  0  0  0  0  0  0  0  0  0
  1  2  1  0
  2  3  1  0
  3  4  2  0
  3  5  1  0
  5  6  1  0
  6  7  1  0
  7  8  2  0
  8  9  1  0
  9 10  2  0
 10 11  1  0
 11 12  2  0
  6 13  1  0
 13 14  2  0
 14 15  1  0
 15 16  2  0
 16 17  1  0
 17 18  2  0
  6 19  1  0
 19 20  2  0
 19  2  1  0
 12  7  1  0
 18 13  1  0
M  CHG  1   4   1
M  END
>  <id>  (60) 
BACE_263

>  <pic50>  (60) 
5.4436975

>  <pic50_predicted>  (60) 
4.84870334510286

>  <deviation>  (60) 
0.24149093532394678

>  <pic50_predicted_optimized>  (60) 
5.0901942804268066

$$$$

     RDKit          2D

 31 33  0  0  0  0  0  0  0  0999 V2000
   -5.6421   -7.0106    0.0000 C   0  0  0  0  0  0  0  0  0  0  0  0
   -4.1457   -7.1153    0.0000 C   0  0  0  0  0  0  0  0  0  0  0  0
   -2.6494   -7.2199    0.0000 C   0  0  0  0  0  0  0  0  0  0  0  0
   -1.6852   -6.0708    0.0000 C   0  0  0  0  0  0  0  0  0  0  0  0
   -0.2944   -6.6327    0.0000 S   0  0  0  0  0  0  0  0  0  0  0  0
   -0.3991   -8.1291    0.0000 C   0  0  0  0  0  0  0  0  0  0  0  0
    0.7500   -9.0933    0.0000 C   0  0  0  0  0  0  0  0  0  0  0  0
    1.5000   -7.7942    0.0000 N   0  0  0  0  0  4  0  0  0  0  0  0
    0.7500   -6.4952    0.0000 C   0  0  0  0  0  0  0  0  0  0  0  0
    1.5000   -5.1962    0.0000 C   0  0  0  0  0  0  0  0  0  0  0  0
    3.0000   -5.1962    0.0000 O   0  0  0  0  0  0  0  0  0  0  0  0
    0.7500   -3.8971    0.0000 C   0  0  0  0  0  0  0  0  0  0  0  0
   -0.7500   -3.8971    0.0000 C   0  0  0  0  0  0  0  0  0  0  0  0
   -1.5000   -2.5981    0.0000 C   0  0  0  0  0  0  0  0  0  0  0  0
   -3.0000   -2.5981    0.0000 C   0  0  0  0  0  0  0  0  0  0  0  0
   -3.7500   -1.2990    0.0000 C   0  0  0  0  0  0  0  0  0  0  0  0
   -5.2500   -1.2990    0.0000 F   0  0  0  0  0  0  0  0  0  0  0  0
   -3.0000    0.0000    0.0000 C   0  0  0  0  0  0  0  0  0  0  0  0
   -1.5000    0.0000    0.0000 C   0  0  0  0  0  0  0  0  0  0  0  0
   -0.7500    1.2990    0.0000 F   0  0  0  0  0  0  0  0  0  0  0  0
   -0.7500   -1.2990    0.0000 C   0  0  0  0  0  0  0  0  0  0  0  0
    1.5000   -2.5981    0.0000 N   0  0  0  0  0  0  0  0  0  0  0  0
    3.0000   -2.5981    0.0000 C   0  0  0  0  0  0  0  0  0  0  0  0
    3.7500   -1.2990    0.0000 C   0  0  0  0  0  0  0  0  0  0  0  0
    3.7500   -3.8971    0.0000 O   0  0  0  0  0  0  0  0  0  0  0  0
    2.1595   -9.6063    0.0000 C   0  0  0  0  0  0  0  0  0  0  0  0
    2.4200  -11.0835    0.0000 C   0  0  0  0  0  0  0  0  0  0  0  0
    1.2709  -12.0477    0.0000 C   0  0  0  0  0  0  0  0  0  0  0  0
   -0.1386  -11.5347    0.0000 C   0  0  0  0  0  0  0  0  0  0  0  0
   -0.3991  -10.0574    0.0000 C   0  0  0  0  0  0  0  0  0  0  0  0
   -1.8545   -8.4920    0.0000 C   0  0  0  0  0  0  0  0  0  0  0  0
  1  2  3  0
  2  3  1  0
  3  4  2  0
  4  5  1  0
  5  6  1  0
  6  7  1  0
  7  8  1  0
  8  9  1  0
  9 10  1  0
 10 11  1  0
 10 12  1  0
 12 13  1  0
 13 14  1  0
 14 15  2  0
 15 16  1  0
 16 17  1  0
 16 18  2  0
 18 19  1  0
 19 20  1  0
 19 21  2  0
 12 22  1  0
 22 23  1  0
 23 24  1  0
 23 25  2  0
  7 26  1  0
 26 27  1  0
 27 28  1  0
 28 29  1  0
 29 30  1  0
  6 31  2  0
 31  3  1  0
 30  7  1  0
 21 14  1  0
M  CHG  1   8   1
M  END
>  <id>  (61) 
BACE_1290

>  <pic50>  (61) 
5.3649187

>  <pic50_predicted>  (61) 
6.23937942305417

>  <deviation>  (61) 
-0.049465434239964134

>  <pic50_predicted_optimized>  (61) 
6.189913988814205

$$$$

     RDKit          2D

 26 29  0  0  0  0  0  0  0  0999 V2000
    2.3638   -6.3821    0.0000 C   0  0  0  0  0  0  0  0  0  0  0  0
    1.7537   -5.0118    0.0000 C   0  0  0  0  0  0  0  0  0  0  0  0
    2.5037   -3.7128    0.0000 N   0  0  0  0  0  0  0  0  0  0  0  0
    1.5000   -2.5981    0.0000 C   0  0  0  0  0  0  0  0  0  0  0  0
    0.7500   -1.2990    0.0000 C   0  0  0  0  0  0  0  0  0  0  0  0
    1.5000    0.0000    0.0000 C   0  0  0  0  0  0  0  0  0  0  0  0
    0.7500    1.2990    0.0000 C   0  0  0  0  0  0  0  0  0  0  0  0
   -0.7500    1.2990    0.0000 C   0  0  0  0  0  0  0  0  0  0  0  0
   -1.5000    2.5981    0.0000 F   0  0  0  0  0  0  0  0  0  0  0  0
   -1.5000    0.0000    0.0000 C   0  0  0  0  0  0  0  0  0  0  0  0
   -0.7500   -1.2990    0.0000 C   0  0  0  0  0  0  0  0  0  0  0  0
    2.7135   -1.7164    0.0000 C   0  0  0  0  0  0  0  0  0  0  0  0
    4.0838   -2.3265    0.0000 C   0  0  0  0  0  0  0  0  0  0  0  0
    5.2974   -1.4448    0.0000 C   0  0  0  0  0  0  0  0  0  0  0  0
    5.1406    0.0470    0.0000 C   0  0  0  0  0  0  0  0  0  0  0  0
    3.7703    0.6571    0.0000 C   0  0  0  0  0  0  0  0  0  0  0  0
    3.6135    2.1488    0.0000 C   0  0  0  0  0  0  0  0  0  0  0  0
    4.8270    3.0305    0.0000 C   0  0  0  0  0  0  0  0  0  0  0  0
    4.6702    4.5223    0.0000 C   0  0  0  0  0  0  0  0  0  0  0  0
    3.2999    5.1324    0.0000 C   0  0  0  0  0  0  0  0  0  0  0  0
    2.0864    4.2507    0.0000 N   0  0  0  0  0  0  0  0  0  0  0  0
    2.2431    2.7590    0.0000 C   0  0  0  0  0  0  0  0  0  0  0  0
    2.5567   -0.2246    0.0000 C   0  0  0  0  0  0  0  0  0  0  0  0
    0.1297   -3.2082    0.0000 N   0  0  0  0  0  0  0  0  0  0  0  0
    0.2865   -4.7000    0.0000 C   0  0  0  0  0  0  0  0  0  0  0  0
   -0.8282   -5.7037    0.0000 N   0  0  0  0  0  0  0  0  0  0  0  0
  1  2  1  0
  2  3  2  0
  3  4  1  0
  4  5  1  0
  5  6  2  0
  6  7  1  0
  7  8  2  0
  8  9  1  0
  8 10  1  0
 10 11  2  0
  4 12  1  0
 12 13  2  0
 13 14  1  0
 14 15  2  0
 15 16  1  0
 16 17  1  0
 17 18  2  0
 18 19  1  0
 19 20  2  0
 20 21  1  0
 21 22  2  0
 16 23  2  0
  4 24  1  0
 24 25  2  0
 25 26  1  0
 25  2  1  0
 11  5  1  0
 23 12  1  0
 22 17  1  0
M  END
>  <id>  (62) 
BACE_1029

>  <pic50>  (62) 
6.309804

>  <pic50_predicted>  (62) 
6.31497109293964

>  <deviation>  (62) 
-0.09032993211928765

>  <pic50_predicted_optimized>  (62) 
6.224641160820352

$$$$

     RDKit          2D

 29 33  0  0  0  0  0  0  0  0999 V2000
   -0.4445    9.0175    0.0000 C   0  0  0  0  0  0  0  0  0  0  0  0
   -0.6013    7.5257    0.0000 N   0  0  0  0  0  0  0  0  0  0  0  0
    0.5134    6.5220    0.0000 C   0  0  0  0  0  0  0  0  0  0  0  0
    1.9806    6.8338    0.0000 O   0  0  0  0  0  0  0  0  0  0  0  0
   -0.0967    5.1517    0.0000 C   0  0  0  0  0  0  0  0  0  0  0  0
    1.3299    4.6881    0.0000 C   0  0  0  0  0  0  0  0  0  0  0  0
    1.6418    3.2209    0.0000 C   0  0  0  0  0  0  0  0  0  0  0  0
    3.0684    2.7574    0.0000 C   0  0  0  0  0  0  0  0  0  0  0  0
    4.1831    3.7611    0.0000 C   0  0  0  0  0  0  0  0  0  0  0  0
    3.8712    5.2283    0.0000 C   0  0  0  0  0  0  0  0  0  0  0  0
    4.9859    6.2320    0.0000 C   0  0  0  0  0  0  0  0  0  0  0  0
    6.4125    5.7685    0.0000 C   0  0  0  0  0  0  0  0  0  0  0  0
    7.5272    6.7722    0.0000 C   0  0  0  0  0  0  0  0  0  0  0  0
    7.2154    8.2394    0.0000 C   0  0  0  0  0  0  0  0  0  0  0  0
    5.7888    8.7029    0.0000 N   0  0  0  0  0  0  0  0  0  0  0  0
    4.6741    7.6992    0.0000 C   0  0  0  0  0  0  0  0  0  0  0  0
    2.4446    5.6918    0.0000 C   0  0  0  0  0  0  0  0  0  0  0  0
   -0.4086    3.6844    0.0000 C   0  0  0  0  0  0  0  0  0  0  0  0
   -1.8351    3.2209    0.0000 C   0  0  0  0  0  0  0  0  0  0  0  0
   -2.1470    1.7537    0.0000 C   0  0  0  0  0  0  0  0  0  0  0  0
   -1.0323    0.7500    0.0000 C   0  0  0  0  0  0  0  0  0  0  0  0
    0.3943    1.2135    0.0000 C   0  0  0  0  0  0  0  0  0  0  0  0
    0.7062    2.6807    0.0000 C   0  0  0  0  0  0  0  0  0  0  0  0
    1.2760    0.0000    0.0000 O   0  0  0  0  0  0  0  0  0  0  0  0
    0.3943   -1.2135    0.0000 C   0  0  0  0  0  0  0  0  0  0  0  0
   -1.0323   -0.7500    0.0000 O   0  0  0  0  0  0  0  0  0  0  0  0
   -1.5885    5.3085    0.0000 N   0  0  0  0  0  0  0  0  0  0  0  0
   -1.9003    6.7757    0.0000 C   0  0  0  0  0  0  0  0  0  0  0  0
   -3.2707    7.3858    0.0000 N   0  0  0  0  0  0  0  0  0  0  0  0
  1  2  1  0
  2  3  1  0
  3  4  2  0
  3  5  1  0
  5  6  1  0
  6  7  2  0
  7  8  1  0
  8  9  2  0
  9 10  1  0
 10 11  1  0
 11 12  2  0
 12 13  1  0
 13 14  2  0
 14 15  1  0
 15 16  2  0
 10 17  2  0
  5 18  1  0
 18 19  2  0
 19 20  1  0
 20 21  2  0
 21 22  1  0
 22 23  2  0
 22 24  1  0
 24 25  1  0
 25 26  1  0
  5 27  1  0
 27 28  2  0
 28 29  1  0
 28  2  1  0
 17  6  1  0
 23 18  1  0
 16 11  1  0
 26 21  1  0
M  END
>  <id>  (63) 
BACE_944

>  <pic50>  (63) 
6.6020598

>  <pic50_predicted>  (63) 
6.98382570141357

>  <deviation>  (63) 
0.07550896631327221

>  <pic50_predicted_optimized>  (63) 
7.0593346677268425

$$$$

     RDKit          2D

 31 34  0  0  0  0  0  0  0  0999 V2000
    3.7500   -1.2990    0.0000 C   0  0  0  0  0  0  0  0  0  0  0  0
    3.0000    0.0000    0.0000 C   0  0  0  0  0  0  0  0  0  0  0  0
    1.5000    0.0000    0.0000 C   0  0  0  0  0  0  0  0  0  0  0  0
    0.7500   -1.2990    0.0000 C   0  0  0  0  0  0  0  0  0  0  0  0
   -0.7500   -1.2990    0.0000 C   0  0  0  0  0  0  0  0  0  0  0  0
   -1.5000   -2.5981    0.0000 C   0  0  0  0  0  0  0  0  0  0  0  0
   -0.1297   -3.2082    0.0000 C   0  0  0  0  0  0  0  0  0  0  0  0
    0.0271   -4.7000    0.0000 C   0  0  0  0  0  0  0  0  0  0  0  0
    1.3974   -5.3101    0.0000 C   0  0  0  0  0  0  0  0  0  0  0  0
    2.6110   -4.4284    0.0000 C   0  0  0  0  0  0  0  0  0  0  0  0
    2.4542   -2.9366    0.0000 C   0  0  0  0  0  0  0  0  0  0  0  0
    3.6677   -2.0549    0.0000 C   0  0  0  0  0  0  0  0  0  0  0  0
    3.5109   -0.5631    0.0000 C   0  0  0  0  0  0  0  0  0  0  0  0
    4.7244    0.3185    0.0000 C   0  0  0  0  0  0  0  0  0  0  0  0
    6.0947   -0.2916    0.0000 C   0  0  0  0  0  0  0  0  0  0  0  0
    6.2515   -1.7834    0.0000 N   0  0  0  0  0  0  0  0  0  0  0  0
    5.0380   -2.6650    0.0000 C   0  0  0  0  0  0  0  0  0  0  0  0
    5.1948   -4.1568    0.0000 F   0  0  0  0  0  0  0  0  0  0  0  0
    1.0838   -2.3265    0.0000 C   0  0  0  0  0  0  0  0  0  0  0  0
   -1.9635   -4.0247    0.0000 N   0  0  0  0  0  0  0  0  0  0  0  0
   -3.4635   -4.0247    0.0000 C   0  0  0  0  0  0  0  0  0  0  0  0
   -4.3452   -5.2382    0.0000 N   0  0  0  0  0  0  0  0  0  0  0  0
   -3.9271   -2.5981    0.0000 N   0  0  0  0  0  0  0  0  0  0  0  0
   -5.3536   -2.1346    0.0000 C   0  0  0  0  0  0  0  0  0  0  0  0
   -2.7135   -1.7164    0.0000 C   0  0  0  0  0  0  0  0  0  0  0  0
   -2.7135   -0.2164    0.0000 O   0  0  0  0  0  0  0  0  0  0  0  0
   -1.5000    0.0000    0.0000 C   0  0  0  0  0  0  0  0  0  0  0  0
   -0.7500    1.2990    0.0000 C   0  0  0  0  0  0  0  0  0  0  0  0
   -1.5000    2.5981    0.0000 C   0  0  0  0  0  0  0  0  0  0  0  0
   -0.7500    3.8971    0.0000 C   0  0  0  0  0  0  0  0  0  0  0  0
    0.7500    1.2990    0.0000 N   0  0  0  0  0  0  0  0  0  0  0  0
  1  2  1  0
  2  3  1  0
  3  4  2  0
  4  5  1  0
  5  6  1  0
  6  7  1  0
  7  8  2  0
  8  9  1  0
  9 10  2  0
 10 11  1  0
 11 12  1  0
 12 13  2  0
 13 14  1  0
 14 15  2  0
 15 16  1  0
 16 17  2  0
 17 18  1  0
 11 19  2  0
  6 20  1  0
 20 21  2  0
 21 22  1  0
 21 23  1  0
 23 24  1  0
 23 25  1  0
 25 26  2  0
  5 27  2  0
 27 28  1  0
 28 29  1  0
 29 30  1  0
 28 31  2  0
 31  3  1  0
 25  6  1  0
 19  7  1  0
 17 12  1  0
M  END
>  <id>  (64) 
BACE_400

>  <pic50>  (64) 
8

>  <pic50_predicted>  (64) 
7.07584474036813

>  <deviation>  (64) 
0.054032592816984075

>  <pic50_predicted_optimized>  (64) 
7.129877333185115

$$$$

     RDKit          2D

 28 31  0  0  0  0  0  0  0  0999 V2000
   -3.9240   -6.1312    0.0000 C   0  0  0  0  0  0  0  0  0  0  0  0
   -2.4240   -6.1312    0.0000 C   0  0  0  0  0  0  0  0  0  0  0  0
   -1.6740   -4.8322    0.0000 N   0  0  0  0  0  0  0  0  0  0  0  0
   -0.1822   -4.6754    0.0000 C   0  0  0  0  0  0  0  0  0  0  0  0
    0.1297   -3.2082    0.0000 C   0  0  0  0  0  0  0  0  0  0  0  0
    1.5000   -2.5981    0.0000 C   0  0  0  0  0  0  0  0  0  0  0  0
    0.7500   -1.2990    0.0000 C   0  0  0  0  0  0  0  0  0  0  0  0
    1.5000    0.0000    0.0000 C   0  0  0  0  0  0  0  0  0  0  0  0
    0.7500    1.2990    0.0000 C   0  0  0  0  0  0  0  0  0  0  0  0
   -0.7500    1.2990    0.0000 C   0  0  0  0  0  0  0  0  0  0  0  0
   -1.5000    0.0000    0.0000 C   0  0  0  0  0  0  0  0  0  0  0  0
   -3.0000    0.0000    0.0000 C   0  0  0  0  0  0  0  0  0  0  0  0
   -3.7500    1.2990    0.0000 C   0  0  0  0  0  0  0  0  0  0  0  0
   -5.2500    1.2990    0.0000 C   0  0  0  0  0  0  0  0  0  0  0  0
   -6.0000    0.0000    0.0000 C   0  0  0  0  0  0  0  0  0  0  0  0
   -5.2500   -1.2990    0.0000 N   0  0  0  0  0  0  0  0  0  0  0  0
   -3.7500   -1.2990    0.0000 C   0  0  0  0  0  0  0  0  0  0  0  0
   -3.0000   -2.5981    0.0000 F   0  0  0  0  0  0  0  0  0  0  0  0
   -0.7500   -1.2990    0.0000 C   0  0  0  0  0  0  0  0  0  0  0  0
    1.9635   -4.0247    0.0000 N   0  0  0  0  0  0  0  0  0  0  0  0
    3.4635   -4.0247    0.0000 C   0  0  0  0  0  0  0  0  0  0  0  0
    4.3452   -5.2382    0.0000 N   0  0  0  0  0  0  0  0  0  0  0  0
    3.9271   -2.5981    0.0000 N   0  0  0  0  0  0  0  0  0  0  0  0
    5.3536   -2.1346    0.0000 C   0  0  0  0  0  0  0  0  0  0  0  0
    2.7135   -1.7164    0.0000 C   0  0  0  0  0  0  0  0  0  0  0  0
    2.7135   -0.2164    0.0000 O   0  0  0  0  0  0  0  0  0  0  0  0
   -1.1694   -2.4582    0.0000 C   0  0  0  0  0  0  0  0  0  0  0  0
   -2.2841   -3.4619    0.0000 N   0  0  0  0  0  0  0  0  0  0  0  0
  1  2  1  0
  2  3  1  0
  3  4  1  0
  4  5  2  0
  5  6  1  0
  6  7  1  0
  7  8  2  0
  8  9  1  0
  9 10  2  0
 10 11  1  0
 11 12  1  0
 12 13  2  0
 13 14  1  0
 14 15  2  0
 15 16  1  0
 16 17  2  0
 17 18  1  0
 11 19  2  0
  6 20  1  0
 20 21  2  0
 21 22  1  0
 21 23  1  0
 23 24  1  0
 23 25  1  0
 25 26  2  0
  5 27  1  0
 27 28  2  0
 28  3  1  0
 25  6  1  0
 19  7  1  0
 17 12  1  0
M  END
>  <id>  (65) 
BACE_412

>  <pic50>  (65) 
8

>  <pic50_predicted>  (65) 
6.93380506228323

>  <deviation>  (65) 
0.22546964385807153

>  <pic50_predicted_optimized>  (65) 
7.159274706141301

$$$$

     RDKit          2D

 29 32  0  0  0  0  0  0  0  0999 V2000
   -4.6740   -7.4303    0.0000 C   0  0  0  0  0  0  0  0  0  0  0  0
   -3.9240   -6.1312    0.0000 C   0  0  0  0  0  0  0  0  0  0  0  0
   -2.4240   -6.1312    0.0000 C   0  0  0  0  0  0  0  0  0  0  0  0
   -1.6740   -7.4303    0.0000 O   0  0  0  0  0  0  0  0  0  0  0  0
   -1.6740   -4.8322    0.0000 C   0  0  0  0  0  0  0  0  0  0  0  0
   -0.1822   -4.6754    0.0000 C   0  0  0  0  0  0  0  0  0  0  0  0
    0.1297   -3.2082    0.0000 C   0  0  0  0  0  0  0  0  0  0  0  0
    1.5000   -2.5981    0.0000 C   0  0  0  0  0  0  0  0  0  0  0  0
    0.7500   -1.2990    0.0000 C   0  0  0  0  0  0  0  0  0  0  0  0
    1.5000    0.0000    0.0000 C   0  0  0  0  0  0  0  0  0  0  0  0
    0.7500    1.2990    0.0000 C   0  0  0  0  0  0  0  0  0  0  0  0
   -0.7500    1.2990    0.0000 C   0  0  0  0  0  0  0  0  0  0  0  0
   -1.5000    0.0000    0.0000 C   0  0  0  0  0  0  0  0  0  0  0  0
   -3.0000    0.0000    0.0000 C   0  0  0  0  0  0  0  0  0  0  0  0
   -3.7500    1.2990    0.0000 C   0  0  0  0  0  0  0  0  0  0  0  0
   -5.2500    1.2990    0.0000 N   0  0  0  0  0  0  0  0  0  0  0  0
   -6.0000    0.0000    0.0000 C   0  0  0  0  0  0  0  0  0  0  0  0
   -5.2500   -1.2990    0.0000 N   0  0  0  0  0  0  0  0  0  0  0  0
   -3.7500   -1.2990    0.0000 C   0  0  0  0  0  0  0  0  0  0  0  0
   -0.7500   -1.2990    0.0000 C   0  0  0  0  0  0  0  0  0  0  0  0
    1.9635   -4.0247    0.0000 N   0  0  0  0  0  0  0  0  0  0  0  0
    3.4635   -4.0247    0.0000 C   0  0  0  0  0  0  0  0  0  0  0  0
    4.3452   -5.2382    0.0000 N   0  0  0  0  0  0  0  0  0  0  0  0
    3.9271   -2.5981    0.0000 N   0  0  0  0  0  0  0  0  0  0  0  0
    5.3536   -2.1346    0.0000 C   0  0  0  0  0  0  0  0  0  0  0  0
    2.7135   -1.7164    0.0000 C   0  0  0  0  0  0  0  0  0  0  0  0
    2.7135   -0.2164    0.0000 O   0  0  0  0  0  0  0  0  0  0  0  0
   -1.1694   -2.4582    0.0000 C   0  0  0  0  0  0  0  0  0  0  0  0
   -2.2841   -3.4619    0.0000 S   0  0  0  0  0  0  0  0  0  0  0  0
  1  2  1  0
  2  3  1  0
  3  4  2  0
  3  5  1  0
  5  6  2  0
  6  7  1  0
  7  8  1  0
  8  9  1  0
  9 10  2  0
 10 11  1  0
 11 12  2  0
 12 13  1  0
 13 14  1  0
 14 15  2  0
 15 16  1  0
 16 17  2  0
 17 18  1  0
 18 19  2  0
 13 20  2  0
  8 21  1  0
 21 22  2  0
 22 23  1  0
 22 24  1  0
 24 25  1  0
 24 26  1  0
 26 27  2  0
  7 28  2  0
 28 29  1  0
 29  5  1  0
 26  8  1  0
 20  9  1  0
 19 14  1  0
M  END
>  <id>  (66) 
BACE_455

>  <pic50>  (66) 
7.8239088

>  <pic50_predicted>  (66) 
7.13949244323372

>  <deviation>  (66) 
0.1797500667153525

>  <pic50_predicted_optimized>  (66) 
7.319242509949072

$$$$

     RDKit          2D

 35 40  0  0  0  0  0  0  0  0999 V2000
   -0.1459    3.7548    0.0000 O   0  0  0  0  0  0  0  0  0  0  0  0
    0.8578    2.6401    0.0000 C   0  0  0  0  0  0  0  0  0  0  0  0
    0.3943    1.2135    0.0000 C   0  0  0  0  0  0  0  0  0  0  0  0
    1.2760    0.0000    0.0000 C   0  0  0  0  0  0  0  0  0  0  0  0
    0.3943   -1.2135    0.0000 N   0  0  0  0  0  4  0  0  0  0  0  0
   -1.0323   -0.7500    0.0000 C   0  0  0  0  0  0  0  0  0  0  0  0
   -1.0323    0.7500    0.0000 C   0  0  0  0  0  0  0  0  0  0  0  0
   -0.8755    2.2418    0.0000 C   0  0  0  0  0  0  0  0  0  0  0  0
   -2.0890    3.1235    0.0000 C   0  0  0  0  0  0  0  0  0  0  0  0
   -3.4593    2.5134    0.0000 C   0  0  0  0  0  0  0  0  0  0  0  0
   -3.6161    1.0216    0.0000 C   0  0  0  0  0  0  0  0  0  0  0  0
   -4.9864    0.4115    0.0000 C   0  0  0  0  0  0  0  0  0  0  0  0
   -5.1432   -1.0803    0.0000 C   0  0  0  0  0  0  0  0  0  0  0  0
   -6.5136   -1.6904    0.0000 Br  0  0  0  0  0  0  0  0  0  0  0  0
   -3.9297   -1.9620    0.0000 C   0  0  0  0  0  0  0  0  0  0  0  0
   -2.5594   -1.3519    0.0000 C   0  0  0  0  0  0  0  0  0  0  0  0
   -2.4026    0.1399    0.0000 C   0  0  0  0  0  0  0  0  0  0  0  0
    2.3250    2.9520    0.0000 N   0  0  0  0  0  0  0  0  0  0  0  0
    3.3287    1.8373    0.0000 C   0  0  0  0  0  0  0  0  0  0  0  0
    4.7960    2.1491    0.0000 C   0  0  0  0  0  0  0  0  0  0  0  0
    5.2595    3.5757    0.0000 C   0  0  0  0  0  0  0  0  0  0  0  0
    6.7267    3.8876    0.0000 C   0  0  0  0  0  0  0  0  0  0  0  0
    7.7304    2.7729    0.0000 C   0  0  0  0  0  0  0  0  0  0  0  0
    9.1976    3.0847    0.0000 C   0  0  0  0  0  0  0  0  0  0  0  0
    9.6612    4.5113    0.0000 C   0  0  0  0  0  0  0  0  0  0  0  0
    8.6575    5.6260    0.0000 C   0  0  0  0  0  0  0  0  0  0  0  0
    7.1902    5.3142    0.0000 C   0  0  0  0  0  0  0  0  0  0  0  0
    4.2558    4.6904    0.0000 C   0  0  0  0  0  0  0  0  0  0  0  0
    2.7886    4.3786    0.0000 C   0  0  0  0  0  0  0  0  0  0  0  0
    1.7849    5.4933    0.0000 C   0  0  0  0  0  0  0  0  0  0  0  0
    2.2484    6.9199    0.0000 C   0  0  0  0  0  0  0  0  0  0  0  0
    1.2447    8.0346    0.0000 C   0  0  0  0  0  0  0  0  0  0  0  0
   -0.2225    7.7227    0.0000 C   0  0  0  0  0  0  0  0  0  0  0  0
   -0.6860    6.2961    0.0000 C   0  0  0  0  0  0  0  0  0  0  0  0
    0.3177    5.1814    0.0000 C   0  0  0  0  0  0  0  0  0  0  0  0
  1  2  2  0
  2  3  1  0
  3  4  1  0
  4  5  1  0
  5  6  1  0
  6  7  1  0
  7  8  1  0
  8  9  1  0
  9 10  1  0
 10 11  1  0
 11 12  2  0
 12 13  1  0
 13 14  1  0
 13 15  2  0
 15 16  1  0
 16 17  2  0
  2 18  1  0
 18 19  1  0
 19 20  1  0
 20 21  1  0
 21 22  1  0
 22 23  2  0
 23 24  1  0
 24 25  2  0
 25 26  1  0
 26 27  2  0
 21 28  1  0
 28 29  1  0
 29 30  1  0
 30 31  2  0
 31 32  1  0
 32 33  2  0
 33 34  1  0
 34 35  2  0
  7  3  1  0
 17 11  1  0
 29 18  1  0
 35 30  1  0
 17  7  1  0
 27 22  1  0
M  CHG  1   5   1
M  END
>  <id>  (67) 
BACE_755

>  <pic50>  (67) 
7.154902

>  <pic50_predicted>  (67) 
7.2805316138267

>  <deviation>  (67) 
-0.022129801662453763

>  <pic50_predicted_optimized>  (67) 
7.258401812164247

$$$$

     RDKit          2D

 32 36  0  0  0  0  0  0  0  0999 V2000
    3.5320   -0.2136    0.0000 O   0  0  0  0  0  0  0  0  0  0  0  0
    3.9955   -1.6402    0.0000 C   0  0  0  0  0  0  0  0  0  0  0  0
    2.9918   -2.7549    0.0000 C   0  0  0  0  0  0  0  0  0  0  0  0
    3.3037   -4.2221    0.0000 C   0  0  0  0  0  0  0  0  0  0  0  0
    2.0046   -4.9721    0.0000 N   0  0  0  0  0  4  0  0  0  0  0  0
    0.8899   -3.9684    0.0000 C   0  0  0  0  0  0  0  0  0  0  0  0
    1.5000   -2.5981    0.0000 C   0  0  0  0  0  0  0  0  0  0  0  0
    0.7500   -1.2990    0.0000 C   0  0  0  0  0  0  0  0  0  0  0  0
    1.5000    0.0000    0.0000 C   0  0  0  0  0  0  0  0  0  0  0  0
    0.7500    1.2990    0.0000 C   0  0  0  0  0  0  0  0  0  0  0  0
   -0.7500    1.2990    0.0000 C   0  0  0  0  0  0  0  0  0  0  0  0
   -1.5000    0.0000    0.0000 C   0  0  0  0  0  0  0  0  0  0  0  0
   -0.7500   -1.2990    0.0000 C   0  0  0  0  0  0  0  0  0  0  0  0
   -1.5000   -2.5981    0.0000 Br  0  0  0  0  0  0  0  0  0  0  0  0
    5.4627   -1.9520    0.0000 N   0  0  0  0  0  0  0  0  0  0  0  0
    5.9262   -3.3786    0.0000 C   0  0  0  0  0  0  0  0  0  0  0  0
    7.3934   -3.6905    0.0000 C   0  0  0  0  0  0  0  0  0  0  0  0
    8.3971   -2.5758    0.0000 C   0  0  0  0  0  0  0  0  0  0  0  0
    9.8644   -2.8876    0.0000 C   0  0  0  0  0  0  0  0  0  0  0  0
   10.3279   -4.3142    0.0000 C   0  0  0  0  0  0  0  0  0  0  0  0
   11.7951   -4.6261    0.0000 C   0  0  0  0  0  0  0  0  0  0  0  0
   12.7988   -3.5114    0.0000 C   0  0  0  0  0  0  0  0  0  0  0  0
   12.3353   -2.0848    0.0000 C   0  0  0  0  0  0  0  0  0  0  0  0
   10.8681   -1.7729    0.0000 C   0  0  0  0  0  0  0  0  0  0  0  0
    7.9336   -1.1492    0.0000 C   0  0  0  0  0  0  0  0  0  0  0  0
    6.4664   -0.8373    0.0000 C   0  0  0  0  0  0  0  0  0  0  0  0
    6.0029    0.5893    0.0000 C   0  0  0  0  0  0  0  0  0  0  0  0
    7.0066    1.7040    0.0000 C   0  0  0  0  0  0  0  0  0  0  0  0
    6.5430    3.1306    0.0000 C   0  0  0  0  0  0  0  0  0  0  0  0
    5.0758    3.4425    0.0000 C   0  0  0  0  0  0  0  0  0  0  0  0
    4.0721    2.3277    0.0000 C   0  0  0  0  0  0  0  0  0  0  0  0
    4.5356    0.9012    0.0000 C   0  0  0  0  0  0  0  0  0  0  0  0
  1  2  2  0
  2  3  1  0
  3  4  1  0
  4  5  1  0
  5  6  1  0
  6  7  1  0
  7  8  1  0
  8  9  2  0
  9 10  1  0
 10 11  2  0
 11 12  1  0
 12 13  2  0
 13 14  1  0
  2 15  1  0
 15 16  1  0
 16 17  1  0
 17 18  1  0
 18 19  1  0
 19 20  2  0
 20 21  1  0
 21 22  2  0
 22 23  1  0
 23 24  2  0
 18 25  1  0
 25 26  1  0
 26 27  1  0
 27 28  2  0
 28 29  1  0
 29 30  2  0
 30 31  1  0
 31 32  2  0
  7  3  1  0
 13  8  1  0
 26 15  1  0
 32 27  1  0
 24 19  1  0
M  CHG  1   5   1
M  END
>  <id>  (68) 
BACE_1054

>  <pic50>  (68) 
6.221849

>  <pic50_predicted>  (68) 
6.22109424669388

>  <deviation>  (68) 
-1.0957254175731923

>  <pic50_predicted_optimized>  (68) 
5.1253688291206885

$$$$

     RDKit          2D

 19 20  0  0  0  0  0  0  0  0999 V2000
    3.0000    0.0000    0.0000 N   0  0  0  0  0  4  0  0  0  0  0  0
    1.5000    0.0000    0.0000 C   0  0  0  0  0  0  0  0  0  0  0  0
    0.7500   -1.2990    0.0000 C   0  0  0  0  0  0  0  0  0  0  0  0
   -0.7500   -1.2990    0.0000 S   0  0  0  0  0  0  0  0  0  0  0  0
   -0.4895   -2.7762    0.0000 O   0  0  0  0  0  0  0  0  0  0  0  0
   -2.1595   -1.8121    0.0000 O   0  0  0  0  0  0  0  0  0  0  0  0
   -1.5000    0.0000    0.0000 C   0  0  0  0  0  0  0  0  0  0  0  0
   -0.7500    1.2990    0.0000 C   0  0  0  0  0  0  0  0  0  0  0  0
   -1.5000    2.5981    0.0000 C   0  0  0  0  0  0  0  0  0  0  0  0
   -0.7500    3.8971    0.0000 C   0  0  0  0  0  0  0  0  0  0  0  0
    0.7500    3.8971    0.0000 C   0  0  0  0  0  0  0  0  0  0  0  0
    1.5000    5.1962    0.0000 C   0  0  0  0  0  0  0  0  0  0  0  0
    0.7500    6.4952    0.0000 C   0  0  0  0  0  0  0  0  0  0  0  0
    1.5000    7.7942    0.0000 O   0  0  0  0  0  0  0  0  0  0  0  0
   -0.7500    6.4952    0.0000 C   0  0  0  0  0  0  0  0  0  0  0  0
   -1.5000    7.7942    0.0000 Br  0  0  0  0  0  0  0  0  0  0  0  0
   -1.5000    5.1962    0.0000 C   0  0  0  0  0  0  0  0  0  0  0  0
    0.7500    1.2990    0.0000 C   0  0  0  0  0  0  0  0  0  0  0  0
    1.5000    2.5981    0.0000 O   0  0  0  0  0  0  0  0  0  0  0  0
  1  2  1  0
  2  3  1  0
  3  4  1  0
  4  5  2  0
  4  6  2  0
  4  7  1  0
  7  8  1  0
  8  9  1  0
  9 10  1  0
 10 11  2  0
 11 12  1  0
 12 13  2  0
 13 14  1  0
 13 15  1  0
 15 16  1  0
 15 17  2  0
  8 18  1  0
 18 19  1  0
 18  2  1  0
 17 10  1  0
M  CHG  1   1   1
M  END
>  <id>  (69) 
BACE_1505

>  <pic50>  (69) 
4

>  <pic50_predicted>  (69) 
3.98762817608551

>  <deviation>  (69) 
-7.077671781985373e-16

>  <pic50_predicted_optimized>  (69) 
3.9876281760855092

$$$$

     RDKit          2D

 33 35  0  0  0  0  0  0  0  0999 V2000
    6.0000   -2.5981    0.0000 C   0  0  0  0  0  0  0  0  0  0  0  0
    5.2500   -1.2990    0.0000 C   0  0  0  0  0  0  0  0  0  0  0  0
    3.7500   -1.2990    0.0000 C   0  0  0  0  0  0  0  0  0  0  0  0
    3.0000    0.0000    0.0000 O   0  0  0  0  0  0  0  0  0  0  0  0
    1.5000    0.0000    0.0000 C   0  0  0  0  0  0  0  0  0  0  0  0
    0.7500   -1.2990    0.0000 C   0  0  0  0  0  0  0  0  0  0  0  0
   -0.7500   -1.2990    0.0000 C   0  0  0  0  0  0  0  0  0  0  0  0
   -1.5000   -2.5981    0.0000 C   0  0  0  0  0  0  0  0  0  0  0  0
   -3.0000   -2.5981    0.0000 C   0  0  0  0  0  0  0  0  0  0  0  0
   -3.7500   -1.2990    0.0000 C   0  0  0  0  0  0  0  0  0  0  0  0
   -5.2500   -1.2990    0.0000 S   0  0  0  0  0  0  0  0  0  0  0  0
   -6.6595   -0.7860    0.0000 O   0  0  0  0  0  0  0  0  0  0  0  0
   -4.9895    0.1782    0.0000 O   0  0  0  0  0  0  0  0  0  0  0  0
   -6.0000   -2.5981    0.0000 C   0  0  0  0  0  0  0  0  0  0  0  0
   -5.2500   -3.8971    0.0000 C   0  0  0  0  0  0  0  0  0  0  0  0
   -6.0000   -5.1962    0.0000 N   0  0  0  0  0  4  0  0  0  0  0  0
   -7.5000   -5.1962    0.0000 C   0  0  0  0  0  0  0  0  0  0  0  0
   -8.2500   -6.4952    0.0000 C   0  0  0  0  0  0  0  0  0  0  0  0
   -9.7500   -6.4952    0.0000 C   0  0  0  0  0  0  0  0  0  0  0  0
  -10.5000   -7.7942    0.0000 C   0  0  0  0  0  0  0  0  0  0  0  0
   -9.7500   -9.0933    0.0000 C   0  0  0  0  0  0  0  0  0  0  0  0
   -8.2500   -9.0933    0.0000 C   0  0  0  0  0  0  0  0  0  0  0  0
   -7.5000  -10.3923    0.0000 C   0  0  0  0  0  0  0  0  0  0  0  0
   -8.7990  -11.1423    0.0000 C   0  0  0  0  0  0  0  0  0  0  0  0
   -6.2010   -9.6423    0.0000 C   0  0  0  0  0  0  0  0  0  0  0  0
   -6.7500  -11.6913    0.0000 C   0  0  0  0  0  0  0  0  0  0  0  0
   -7.5000   -7.7942    0.0000 C   0  0  0  0  0  0  0  0  0  0  0  0
   -3.7500   -3.8971    0.0000 C   0  0  0  0  0  0  0  0  0  0  0  0
   -3.0000   -5.1962    0.0000 O   0  0  0  0  0  0  0  0  0  0  0  0
   -1.5000    0.0000    0.0000 C   0  0  0  0  0  0  0  0  0  0  0  0
   -0.7500    1.2990    0.0000 C   0  0  0  0  0  0  0  0  0  0  0  0
    0.7500    1.2990    0.0000 C   0  0  0  0  0  0  0  0  0  0  0  0
    1.5000    2.5981    0.0000 N   0  0  0  0  0  0  0  0  0  0  0  0
  1  2  1  0
  2  3  1  0
  3  4  1  0
  4  5  1  0
  5  6  2  0
  6  7  1  0
  7  8  1  0
  8  9  1  0
  9 10  1  0
 10 11  1  0
 11 12  2  0
 11 13  2  0
 11 14  1  0
 14 15  1  0
 15 16  1  0
 16 17  1  0
 17 18  1  0
 18 19  2  0
 19 20  1  0
 20 21  2  0
 21 22  1  0
 22 23  1  0
 23 24  1  0
 23 25  1  0
 23 26  1  0
 22 27  2  0
 15 28  1  0
 28 29  1  0
  7 30  2  0
 30 31  1  0
 31 32  2  0
 32 33  1  0
 32  5  1  0
 28  9  1  0
 27 18  1  0
M  CHG  1  16   1
M  END
>  <id>  (70) 
BACE_671

>  <pic50>  (70) 
7.3467875

>  <pic50_predicted>  (70) 
6.59883673114192

>  <deviation>  (70) 
0.039249680761328024

>  <pic50_predicted_optimized>  (70) 
6.638086411903248

$$$$

     RDKit          2D

 32 34  0  0  0  0  0  0  0  0999 V2000
    7.5000   -2.5981    0.0000 C   0  0  0  0  0  0  0  0  0  0  0  0
    6.0000   -2.5981    0.0000 C   0  0  0  0  0  0  0  0  0  0  0  0
    5.2500   -1.2990    0.0000 C   0  0  0  0  0  0  0  0  0  0  0  0
    3.7500   -1.2990    0.0000 O   0  0  0  0  0  0  0  0  0  0  0  0
    3.0000    0.0000    0.0000 C   0  0  0  0  0  0  0  0  0  0  0  0
    1.5000    0.0000    0.0000 C   0  0  0  0  0  0  0  0  0  0  0  0
    0.7500   -1.2990    0.0000 C   0  0  0  0  0  0  0  0  0  0  0  0
   -0.7500   -1.2990    0.0000 C   0  0  0  0  0  0  0  0  0  0  0  0
   -1.5000    0.0000    0.0000 C   0  0  0  0  0  0  0  0  0  0  0  0
   -0.7500    1.2990    0.0000 C   0  0  0  0  0  0  0  0  0  0  0  0
   -1.5000    2.5981    0.0000 C   0  0  0  0  0  0  0  0  0  0  0  0
   -0.7500    3.8971    0.0000 C   0  0  0  0  0  0  0  0  0  0  0  0
    0.7500    3.8971    0.0000 C   0  0  0  0  0  0  0  0  0  0  0  0
    1.5000    5.1962    0.0000 S   0  0  0  0  0  0  0  0  0  0  0  0
    2.6491    6.1603    0.0000 O   0  0  0  0  0  0  0  0  0  0  0  0
    2.6491    4.2320    0.0000 O   0  0  0  0  0  0  0  0  0  0  0  0
    0.7500    6.4952    0.0000 C   0  0  0  0  0  0  0  0  0  0  0  0
   -0.7500    6.4952    0.0000 C   0  0  0  0  0  0  0  0  0  0  0  0
   -1.5000    7.7942    0.0000 N   0  0  0  0  0  4  0  0  0  0  0  0
   -0.7500    9.0933    0.0000 C   0  0  0  0  0  0  0  0  0  0  0  0
   -1.5000   10.3923    0.0000 C   0  0  0  0  0  0  0  0  0  0  0  0
   -0.7500   11.6913    0.0000 C   0  0  0  0  0  0  0  0  0  0  0  0
   -1.5000   12.9904    0.0000 C   0  0  0  0  0  0  0  0  0  0  0  0
   -3.0000   12.9904    0.0000 C   0  0  0  0  0  0  0  0  0  0  0  0
   -3.7500   11.6913    0.0000 C   0  0  0  0  0  0  0  0  0  0  0  0
   -5.2500   11.6913    0.0000 C   0  0  0  0  0  0  0  0  0  0  0  0
   -6.0000   12.9904    0.0000 C   0  0  0  0  0  0  0  0  0  0  0  0
   -6.0000   10.3923    0.0000 C   0  0  0  0  0  0  0  0  0  0  0  0
   -3.0000   10.3923    0.0000 C   0  0  0  0  0  0  0  0  0  0  0  0
   -1.5000    5.1962    0.0000 C   0  0  0  0  0  0  0  0  0  0  0  0
   -3.0000    5.1962    0.0000 O   0  0  0  0  0  0  0  0  0  0  0  0
    0.7500    1.2990    0.0000 C   0  0  0  0  0  0  0  0  0  0  0  0
  1  2  1  0
  2  3  1  0
  3  4  1  0
  4  5  1  0
  5  6  1  0
  6  7  2  0
  7  8  1  0
  8  9  2  0
  9 10  1  0
 10 11  1  0
 11 12  1  0
 12 13  1  0
 13 14  1  0
 14 15  2  0
 14 16  2  0
 14 17  1  0
 17 18  1  0
 18 19  1  0
 19 20  1  0
 20 21  1  0
 21 22  2  0
 22 23  1  0
 23 24  2  0
 24 25  1  0
 25 26  1  0
 26 27  1  0
 26 28  1  0
 25 29  2  0
 18 30  1  0
 30 31  1  0
 10 32  2  0
 32  6  1  0
 30 12  1  0
 29 21  1  0
M  CHG  1  19   1
M  END
>  <id>  (71) 
BACE_1132

>  <pic50>  (71) 
5.9586072

>  <pic50_predicted>  (71) 
6.73402756202516

>  <deviation>  (71) 
-0.3086761962026982

>  <pic50_predicted_optimized>  (71) 
6.425351365822462

$$$$

     RDKit          2D

 31 33  0  0  0  0  0  0  0  0999 V2000
    2.3638   -6.3821    0.0000 C   0  0  0  0  0  0  0  0  0  0  0  0
    1.7537   -5.0118    0.0000 N   0  0  0  0  0  0  0  0  0  0  0  0
    2.5037   -3.7128    0.0000 C   0  0  0  0  0  0  0  0  0  0  0  0
    3.9955   -3.5560    0.0000 O   0  0  0  0  0  0  0  0  0  0  0  0
    1.5000   -2.5981    0.0000 C   0  0  0  0  0  0  0  0  0  0  0  0
    0.7500   -1.2990    0.0000 C   0  0  0  0  0  0  0  0  0  0  0  0
    1.5000    0.0000    0.0000 C   0  0  0  0  0  0  0  0  0  0  0  0
    0.7500    1.2990    0.0000 C   0  0  0  0  0  0  0  0  0  0  0  0
   -0.7500    1.2990    0.0000 C   0  0  0  0  0  0  0  0  0  0  0  0
   -1.5000    2.5981    0.0000 O   0  0  0  0  0  0  0  0  0  0  0  0
   -0.7500    3.8971    0.0000 C   0  0  0  0  0  0  0  0  0  0  0  0
   -1.5000    5.1962    0.0000 F   0  0  0  0  0  0  0  0  0  0  0  0
    0.7500    3.8971    0.0000 F   0  0  0  0  0  0  0  0  0  0  0  0
   -1.5000    0.0000    0.0000 C   0  0  0  0  0  0  0  0  0  0  0  0
   -0.7500   -1.2990    0.0000 C   0  0  0  0  0  0  0  0  0  0  0  0
    2.7135   -1.7164    0.0000 C   0  0  0  0  0  0  0  0  0  0  0  0
    4.0838   -2.3265    0.0000 C   0  0  0  0  0  0  0  0  0  0  0  0
    5.2974   -1.4448    0.0000 C   0  0  0  0  0  0  0  0  0  0  0  0
    5.1406    0.0470    0.0000 C   0  0  0  0  0  0  0  0  0  0  0  0
    3.7703    0.6571    0.0000 C   0  0  0  0  0  0  0  0  0  0  0  0
    3.6135    2.1488    0.0000 O   0  0  0  0  0  0  0  0  0  0  0  0
    4.8270    3.0305    0.0000 C   0  0  0  0  0  0  0  0  0  0  0  0
    4.6702    4.5223    0.0000 C   0  0  0  0  0  0  0  0  0  0  0  0
    5.8837    5.4040    0.0000 C   0  0  0  0  0  0  0  0  0  0  0  0
    5.7269    6.8958    0.0000 C   0  0  0  0  0  0  0  0  0  0  0  0
    6.9405    7.7774    0.0000 F   0  0  0  0  0  0  0  0  0  0  0  0
    4.3566    7.5059    0.0000 F   0  0  0  0  0  0  0  0  0  0  0  0
    2.5567   -0.2246    0.0000 C   0  0  0  0  0  0  0  0  0  0  0  0
    0.1297   -3.2082    0.0000 N   0  0  0  0  0  0  0  0  0  0  0  0
    0.2865   -4.7000    0.0000 C   0  0  0  0  0  0  0  0  0  0  0  0
   -0.8282   -5.7037    0.0000 N   0  0  0  0  0  0  0  0  0  0  0  0
  1  2  1  0
  2  3  1  0
  3  4  2  0
  3  5  1  0
  5  6  1  1
  6  7  2  0
  7  8  1  0
  8  9  2  0
  9 10  1  0
 10 11  1  0
 11 12  1  0
 11 13  1  0
  9 14  1  0
 14 15  2  0
  5 16  1  0
 16 17  2  0
 17 18  1  0
 18 19  2  0
 19 20  1  0
 20 21  1  0
 21 22  1  0
 22 23  1  0
 23 24  1  0
 24 25  2  3
 25 26  1  0
 25 27  1  0
 20 28  2  0
  5 29  1  0
 29 30  2  0
 30 31  1  0
 30  2  1  0
 15  6  1  0
 28 16  1  0
M  END
>  <id>  (72) 
BACE_590

>  <pic50>  (72) 
7.5228786

>  <pic50_predicted>  (72) 
7.18418969706855

>  <deviation>  (72) 
0.04306285265670258

>  <pic50_predicted_optimized>  (72) 
7.227252549725253

$$$$

     RDKit          2D

 25 27  0  0  0  0  0  0  0  0999 V2000
   -5.1814   -2.6490    0.0000 C   0  0  0  0  0  0  0  0  0  0  0  0
   -3.7548   -2.1855    0.0000 C   0  0  0  0  0  0  0  0  0  0  0  0
   -2.6401   -3.1891    0.0000 C   0  0  0  0  0  0  0  0  0  0  0  0
   -2.9520   -4.6564    0.0000 C   0  0  0  0  0  0  0  0  0  0  0  0
   -4.3786   -5.1199    0.0000 C   0  0  0  0  0  0  0  0  0  0  0  0
   -5.4933   -4.1162    0.0000 O   0  0  0  0  0  0  0  0  0  0  0  0
   -4.6904   -6.5871    0.0000 N   0  0  0  0  0  0  0  0  0  0  0  0
   -6.1170   -7.0506    0.0000 C   0  0  0  0  0  0  0  0  0  0  0  0
   -6.4289   -8.5179    0.0000 C   0  0  0  0  0  0  0  0  0  0  0  0
   -7.8555   -8.9814    0.0000 C   0  0  0  0  0  0  0  0  0  0  0  0
   -8.1673  -10.4486    0.0000 C   0  0  0  0  0  0  0  0  0  0  0  0
   -7.0526  -11.4523    0.0000 C   0  0  0  0  0  0  0  0  0  0  0  0
   -5.6260  -10.9888    0.0000 C   0  0  0  0  0  0  0  0  0  0  0  0
   -5.3142   -9.5216    0.0000 C   0  0  0  0  0  0  0  0  0  0  0  0
   -1.2135   -2.7256    0.0000 N   0  0  0  0  0  0  0  0  0  0  0  0
   -0.0000   -3.6073    0.0000 C   0  0  0  0  0  0  0  0  0  0  0  0
    0.0000   -5.1073    0.0000 N   0  0  0  0  0  0  0  0  0  0  0  0
    1.2135   -2.7256    0.0000 N   0  0  0  0  0  0  0  0  0  0  0  0
    0.7500   -1.2990    0.0000 C   0  0  0  0  0  0  0  0  0  0  0  0
    1.5000    0.0000    0.0000 C   0  0  0  0  0  0  0  0  0  0  0  0
    0.7500    1.2990    0.0000 C   0  0  0  0  0  0  0  0  0  0  0  0
    1.5000    2.5981    0.0000 Cl  0  0  0  0  0  0  0  0  0  0  0  0
   -0.7500    1.2990    0.0000 C   0  0  0  0  0  0  0  0  0  0  0  0
   -1.5000    0.0000    0.0000 C   0  0  0  0  0  0  0  0  0  0  0  0
   -0.7500   -1.2990    0.0000 C   0  0  0  0  0  0  0  0  0  0  0  0
  1  2  1  0
  2  3  1  0
  3  4  1  0
  4  5  1  0
  5  6  2  0
  5  7  1  0
  7  8  1  0
  8  9  1  0
  9 10  2  0
 10 11  1  0
 11 12  2  0
 12 13  1  0
 13 14  2  0
  3 15  1  0
 15 16  1  0
 16 17  1  0
 16 18  2  0
 18 19  1  0
 19 20  2  0
 20 21  1  0
 21 22  1  0
 21 23  2  0
 23 24  1  0
 24 25  2  0
 14  9  1  0
 25 15  1  0
 25 19  1  0
M  END
>  <id>  (73) 
BACE_1489

>  <pic50>  (73) 
4.1426673

>  <pic50_predicted>  (73) 
3.3599600759325

>  <deviation>  (73) 
-0.09582523570603275

>  <pic50_predicted_optimized>  (73) 
3.264134840226467

$$$$

     RDKit          2D

 32 35  0  0  0  0  0  0  0  0999 V2000
    6.0000   -7.7942    0.0000 C   0  0  0  0  0  0  0  0  0  0  0  0
    5.2500   -6.4952    0.0000 C   0  0  0  0  0  0  0  0  0  0  0  0
    6.0000   -5.1962    0.0000 O   0  0  0  0  0  0  0  0  0  0  0  0
    5.2500   -3.8971    0.0000 C   0  0  0  0  0  0  0  0  0  0  0  0
    3.7500   -3.8971    0.0000 C   0  0  0  0  0  0  0  0  0  0  0  0
    3.0000   -2.5981    0.0000 C   0  0  0  0  0  0  0  0  0  0  0  0
    1.5000   -2.5981    0.0000 C   0  0  0  0  0  0  0  0  0  0  0  0
    0.7500   -1.2990    0.0000 N   0  0  0  0  0  4  0  0  0  0  0  0
    1.5000    0.0000    0.0000 C   0  0  0  0  0  0  0  0  0  0  0  0
    0.7500    1.2990    0.0000 C   0  0  0  0  0  0  0  0  0  0  0  0
   -0.7500    1.2990    0.0000 C   0  0  0  0  0  0  0  0  0  0  0  0
   -1.5000    0.0000    0.0000 C   0  0  0  0  0  0  0  0  0  0  0  0
   -0.7500   -1.2990    0.0000 C   0  0  0  0  0  0  0  0  0  0  0  0
   -1.5000   -2.5981    0.0000 C   0  0  0  0  0  0  0  0  0  0  0  0
   -2.2418    1.4558    0.0000 C   0  0  0  0  0  0  0  0  0  0  0  0
   -2.5537    2.9231    0.0000 N   0  0  0  0  0  0  0  0  0  0  0  0
   -3.9240    3.5332    0.0000 C   0  0  0  0  0  0  0  0  0  0  0  0
   -1.2546    3.6731    0.0000 S   0  0  0  0  0  0  0  0  0  0  0  0
   -2.1363    4.8866    0.0000 O   0  0  0  0  0  0  0  0  0  0  0  0
   -0.1399    4.6767    0.0000 O   0  0  0  0  0  0  0  0  0  0  0  0
   -0.1399    2.6694    0.0000 N   0  0  0  0  0  0  0  0  0  0  0  0
    1.3273    2.9812    0.0000 C   0  0  0  0  0  0  0  0  0  0  0  0
    2.3310    1.8665    0.0000 C   0  0  0  0  0  0  0  0  0  0  0  0
    3.7982    2.1784    0.0000 C   0  0  0  0  0  0  0  0  0  0  0  0
    4.2618    3.6050    0.0000 C   0  0  0  0  0  0  0  0  0  0  0  0
    3.2581    4.7197    0.0000 C   0  0  0  0  0  0  0  0  0  0  0  0
    3.7216    6.1463    0.0000 F   0  0  0  0  0  0  0  0  0  0  0  0
    1.7909    4.4078    0.0000 C   0  0  0  0  0  0  0  0  0  0  0  0
    3.7500   -1.2990    0.0000 C   0  0  0  0  0  0  0  0  0  0  0  0
    5.2500   -1.2990    0.0000 C   0  0  0  0  0  0  0  0  0  0  0  0
    6.0000   -2.5981    0.0000 C   0  0  0  0  0  0  0  0  0  0  0  0
    7.5000   -2.5981    0.0000 O   0  0  0  0  0  0  0  0  0  0  0  0
  1  2  1  0
  2  3  1  0
  3  4  1  0
  4  5  2  0
  5  6  1  0
  6  7  1  0
  7  8  1  0
  8  9  1  0
  9 10  1  0
 10 11  1  0
 11 12  1  0
 12 13  1  0
 13 14  1  0
 11 15  1  0
 15 16  1  0
 16 17  1  0
 16 18  1  0
 18 19  2  0
 18 20  2  0
 18 21  1  0
 21 22  1  0
 22 23  2  0
 23 24  1  0
 24 25  2  0
 25 26  1  0
 26 27  1  0
 26 28  2  0
  6 29  2  0
 29 30  1  0
 30 31  2  0
 31 32  1  0
 31  4  1  0
 13  8  1  0
 28 22  1  0
 21 11  1  0
M  CHG  1   8   1
M  END
>  <id>  (74) 
BACE_1141

>  <pic50>  (74) 
5.9208188

>  <pic50_predicted>  (74) 
6.05695312896429

>  <deviation>  (74) 
2.778333119124454e-15

>  <pic50_predicted_optimized>  (74) 
6.056953128964293

$$$$

     RDKit          2D

 15 16  0  0  0  0  0  0  0  0999 V2000
   -0.0000   -5.1073    0.0000 N   0  0  0  0  0  0  0  0  0  0  0  0
   -0.0000   -3.6073    0.0000 C   0  0  0  0  0  0  0  0  0  0  0  0
    1.2135   -2.7256    0.0000 N   0  0  0  0  0  0  0  0  0  0  0  0
    0.7500   -1.2990    0.0000 C   0  0  0  0  0  0  0  0  0  0  0  0
    1.5000    0.0000    0.0000 C   0  0  0  0  0  0  0  0  0  0  0  0
    0.7500    1.2990    0.0000 C   0  0  0  0  0  0  0  0  0  0  0  0
    1.5000    2.5981    0.0000 Cl  0  0  0  0  0  0  0  0  0  0  0  0
   -0.7500    1.2990    0.0000 C   0  0  0  0  0  0  0  0  0  0  0  0
   -1.5000    0.0000    0.0000 C   0  0  0  0  0  0  0  0  0  0  0  0
   -0.7500   -1.2990    0.0000 C   0  0  0  0  0  0  0  0  0  0  0  0
   -1.2135   -2.7256    0.0000 N   0  0  0  0  0  0  0  0  0  0  0  0
   -2.6401   -3.1891    0.0000 C   0  0  0  0  0  0  0  0  0  0  0  0
   -3.7548   -2.1855    0.0000 C   0  0  0  0  0  0  0  0  0  0  0  0
   -5.1814   -2.6490    0.0000 C   0  0  0  0  0  0  0  0  0  0  0  0
   -6.2961   -1.6453    0.0000 O   0  0  0  0  0  0  0  0  0  0  0  0
  1  2  1  0
  2  3  2  0
  3  4  1  0
  4  5  2  0
  5  6  1  0
  6  7  1  0
  6  8  2  0
  8  9  1  0
  9 10  2  0
 10 11  1  0
 11 12  1  0
 12 13  1  0
 13 14  1  0
 14 15  1  0
 11  2  1  0
 10  4  1  0
M  END
>  <id>  (75) 
BACE_199

>  <pic50>  (75) 
3.1135092

>  <pic50_predicted>  (75) 
3.01576174112654

>  <deviation>  (75) 
2.3900634557902672e-15

>  <pic50_predicted_optimized>  (75) 
3.0157617411265423

$$$$

     RDKit          2D

 26 29  0  0  0  0  0  0  0  0999 V2000
    2.3638   -6.3821    0.0000 N   0  0  0  0  0  0  0  0  0  0  0  0
    1.7537   -5.0118    0.0000 C   0  0  0  0  0  0  0  0  0  0  0  0
    2.5037   -3.7128    0.0000 N   0  0  0  0  0  0  0  0  0  0  0  0
    1.5000   -2.5981    0.0000 C   0  0  0  0  0  0  0  0  0  0  0  0
    0.7500   -1.2990    0.0000 C   0  0  0  0  0  0  0  0  0  0  0  0
    1.5000    0.0000    0.0000 C   0  0  0  0  0  0  0  0  0  0  0  0
    0.7500    1.2990    0.0000 C   0  0  0  0  0  0  0  0  0  0  0  0
   -0.7500    1.2990    0.0000 C   0  0  0  0  0  0  0  0  0  0  0  0
   -1.5000    0.0000    0.0000 C   0  0  0  0  0  0  0  0  0  0  0  0
   -0.7500   -1.2990    0.0000 C   0  0  0  0  0  0  0  0  0  0  0  0
    2.7135   -1.7164    0.0000 C   0  0  0  0  0  0  0  0  0  0  0  0
    4.0838   -2.3265    0.0000 C   0  0  0  0  0  0  0  0  0  0  0  0
    5.2974   -1.4448    0.0000 C   0  0  0  0  0  0  0  0  0  0  0  0
    5.1406    0.0470    0.0000 C   0  0  0  0  0  0  0  0  0  0  0  0
    3.7703    0.6571    0.0000 C   0  0  0  0  0  0  0  0  0  0  0  0
    2.5567   -0.2246    0.0000 C   0  0  0  0  0  0  0  0  0  0  0  0
    0.1297   -3.2082    0.0000 C   0  0  0  0  0  0  0  0  0  0  0  0
   -1.1694   -2.4582    0.0000 O   0  0  0  0  0  0  0  0  0  0  0  0
    0.2865   -4.7000    0.0000 N   0  0  0  0  0  0  0  0  0  0  0  0
   -0.8282   -5.7037    0.0000 C   0  0  0  0  0  0  0  0  0  0  0  0
   -2.2548   -5.2401    0.0000 C   0  0  0  0  0  0  0  0  0  0  0  0
   -2.5667   -3.7729    0.0000 C   0  0  0  0  0  0  0  0  0  0  0  0
   -3.9933   -3.3094    0.0000 C   0  0  0  0  0  0  0  0  0  0  0  0
   -5.1080   -4.3131    0.0000 C   0  0  0  0  0  0  0  0  0  0  0  0
   -4.7961   -5.7803    0.0000 C   0  0  0  0  0  0  0  0  0  0  0  0
   -3.3695   -6.2438    0.0000 C   0  0  0  0  0  0  0  0  0  0  0  0
  1  2  1  0
  2  3  2  0
  3  4  1  0
  4  5  1  0
  5  6  2  0
  6  7  1  0
  7  8  2  0
  8  9  1  0
  9 10  2  0
  4 11  1  0
 11 12  1  0
 12 13  1  0
 13 14  1  0
 14 15  1  0
 15 16  1  0
  4 17  1  0
 17 18  2  0
 17 19  1  0
 19 20  1  0
 20 21  1  0
 21 22  2  0
 22 23  1  0
 23 24  2  0
 24 25  1  0
 25 26  2  0
 19  2  1  0
 26 21  1  0
 10  5  1  0
 16 11  1  0
M  END
>  <id>  (76) 
BACE_1143

>  <pic50>  (76) 
5.9065785

>  <pic50_predicted>  (76) 
5.70891336869843

>  <deviation>  (76) 
0.18411278767884243

>  <pic50_predicted_optimized>  (76) 
5.893026156377273

$$$$

     RDKit          2D

 40 42  0  0  0  0  0  0  0  0999 V2000
    5.5200   13.8618    0.0000 C   0  0  0  0  0  0  0  0  0  0  0  0
    5.3633   12.3701    0.0000 C   0  0  0  0  0  0  0  0  0  0  0  0
    3.9929   11.7599    0.0000 C   0  0  0  0  0  0  0  0  0  0  0  0
    6.5768   11.4884    0.0000 C   0  0  0  0  0  0  0  0  0  0  0  0
    7.9471   12.0985    0.0000 C   0  0  0  0  0  0  0  0  0  0  0  0
    9.1606   11.2168    0.0000 C   0  0  0  0  0  0  0  0  0  0  0  0
    9.0038    9.7250    0.0000 C   0  0  0  0  0  0  0  0  0  0  0  0
    7.6335    9.1149    0.0000 C   0  0  0  0  0  0  0  0  0  0  0  0
    7.4767    7.6231    0.0000 C   0  0  0  0  0  0  0  0  0  0  0  0
    6.1064    7.0130    0.0000 N   0  0  0  0  0  4  0  0  0  0  0  0
    5.9496    5.5212    0.0000 C   0  0  0  0  0  0  0  0  0  0  0  0
    4.5793    4.9111    0.0000 C   0  0  0  0  0  0  0  0  0  0  0  0
    3.3658    5.7928    0.0000 O   0  0  0  0  0  0  0  0  0  0  0  0
    4.4225    3.4194    0.0000 C   0  0  0  0  0  0  0  0  0  0  0  0
    5.8491    2.9558    0.0000 C   0  0  0  0  0  0  0  0  0  0  0  0
    6.9638    1.9521    0.0000 O   0  0  0  0  0  0  0  0  0  0  0  0
    7.5739    0.5818    0.0000 C   0  0  0  0  0  0  0  0  0  0  0  0
    7.5739   -0.9182    0.0000 C   0  0  0  0  0  0  0  0  0  0  0  0
    6.9638   -2.2885    0.0000 C   0  0  0  0  0  0  0  0  0  0  0  0
    5.8491   -3.2922    0.0000 C   0  0  0  0  0  0  0  0  0  0  0  0
    4.4225   -3.7557    0.0000 C   0  0  0  0  0  0  0  0  0  0  0  0
    2.9307   -3.5989    0.0000 N   0  0  0  0  0  0  0  0  0  0  0  0
    1.6317   -2.8489    0.0000 C   0  0  0  0  0  0  0  0  0  0  0  0
    0.6280   -3.9636    0.0000 O   0  0  0  0  0  0  0  0  0  0  0  0
    0.7500   -1.2990    0.0000 C   0  0  0  0  0  0  0  0  0  0  0  0
    1.5000    0.0000    0.0000 C   0  0  0  0  0  0  0  0  0  0  0  0
    0.7500    1.2990    0.0000 C   0  0  0  0  0  0  0  0  0  0  0  0
   -0.7500    1.2990    0.0000 C   0  0  0  0  0  0  0  0  0  0  0  0
   -1.5000    0.0000    0.0000 C   0  0  0  0  0  0  0  0  0  0  0  0
   -3.0000    0.0000    0.0000 N   0  0  0  0  0  0  0  0  0  0  0  0
   -3.7500    1.2990    0.0000 C   0  0  0  0  0  0  0  0  0  0  0  0
   -3.7500   -1.2990    0.0000 S   0  0  0  0  0  0  0  0  0  0  0  0
   -4.5000   -2.5981    0.0000 C   0  0  0  0  0  0  0  0  0  0  0  0
   -2.4510   -2.0490    0.0000 O   0  0  0  0  0  0  0  0  0  0  0  0
   -5.0490   -0.5490    0.0000 O   0  0  0  0  0  0  0  0  0  0  0  0
   -0.7500   -1.2990    0.0000 C   0  0  0  0  0  0  0  0  0  0  0  0
    1.6317    2.5126    0.0000 C   0  0  0  0  0  0  0  0  0  0  0  0
    0.6280    3.6273    0.0000 O   0  0  0  0  0  0  0  0  0  0  0  0
    2.9307    3.2626    0.0000 N   0  0  0  0  0  0  0  0  0  0  0  0
    6.4200    9.9966    0.0000 C   0  0  0  0  0  0  0  0  0  0  0  0
  1  2  1  0
  2  3  1  0
  2  4  1  0
  4  5  2  0
  5  6  1  0
  6  7  2  0
  7  8  1  0
  8  9  1  0
  9 10  1  0
 10 11  1  0
 11 12  1  0
 12 13  1  0
 12 14  1  0
 14 15  1  0
 15 16  1  0
 16 17  1  0
 17 18  1  0
 18 19  1  0
 19 20  1  0
 20 21  1  0
 21 22  1  0
 22 23  1  0
 23 24  2  0
 23 25  1  0
 25 26  1  0
 26 27  2  0
 27 28  1  0
 28 29  2  0
 29 30  1  0
 30 31  1  0
 30 32  1  0
 32 33  1  0
 32 34  2  0
 32 35  2  0
 29 36  1  0
 27 37  1  0
 37 38  2  0
 37 39  1  0
  8 40  2  0
 40  4  1  0
 39 14  1  0
 36 25  2  0
M  CHG  1  10   1
M  END
>  <id>  (77) 
BACE_466

>  <pic50>  (77) 
7.7958798

>  <pic50_predicted>  (77) 
7.41405343399713

>  <deviation>  (77) 
-1.293777116850182

>  <pic50_predicted_optimized>  (77) 
6.120276317146947

$$$$

     RDKit          2D

 27 30  0  0  0  0  0  0  0  0999 V2000
   -5.0218   -4.2298    0.0000 C   0  0  0  0  0  0  0  0  0  0  0  0
   -3.8083   -3.3481    0.0000 N   0  0  0  0  0  0  0  0  0  0  0  0
   -2.3817   -3.8116    0.0000 C   0  0  0  0  0  0  0  0  0  0  0  0
   -1.9182   -5.2382    0.0000 O   0  0  0  0  0  0  0  0  0  0  0  0
   -1.5000   -2.5981    0.0000 C   0  0  0  0  0  0  0  0  0  0  0  0
   -0.7500   -3.8971    0.0000 C   0  0  0  0  0  0  0  0  0  0  0  0
    0.7500   -3.8971    0.0000 C   0  0  0  0  0  0  0  0  0  0  0  0
    2.1595   -4.4101    0.0000 C   0  0  0  0  0  0  0  0  0  0  0  0
    0.4895   -5.3743    0.0000 C   0  0  0  0  0  0  0  0  0  0  0  0
    1.5000   -2.5981    0.0000 C   0  0  0  0  0  0  0  0  0  0  0  0
    0.7500   -1.2990    0.0000 C   0  0  0  0  0  0  0  0  0  0  0  0
    1.5000    0.0000    0.0000 C   0  0  0  0  0  0  0  0  0  0  0  0
    0.7500    1.2990    0.0000 C   0  0  0  0  0  0  0  0  0  0  0  0
   -0.7500    1.2990    0.0000 C   0  0  0  0  0  0  0  0  0  0  0  0
   -1.5000    2.5981    0.0000 C   0  0  0  0  0  0  0  0  0  0  0  0
   -0.7500    3.8971    0.0000 C   0  0  0  0  0  0  0  0  0  0  0  0
   -1.5000    5.1962    0.0000 C   0  0  0  0  0  0  0  0  0  0  0  0
   -0.7500    6.4952    0.0000 F   0  0  0  0  0  0  0  0  0  0  0  0
   -3.0000    5.1962    0.0000 C   0  0  0  0  0  0  0  0  0  0  0  0
   -3.7500    3.8971    0.0000 C   0  0  0  0  0  0  0  0  0  0  0  0
   -5.2500    3.8971    0.0000 Cl  0  0  0  0  0  0  0  0  0  0  0  0
   -3.0000    2.5981    0.0000 C   0  0  0  0  0  0  0  0  0  0  0  0
   -1.5000    0.0000    0.0000 C   0  0  0  0  0  0  0  0  0  0  0  0
   -0.7500   -1.2990    0.0000 C   0  0  0  0  0  0  0  0  0  0  0  0
   -2.3817   -1.3846    0.0000 N   0  0  0  0  0  0  0  0  0  0  0  0
   -3.8083   -1.8481    0.0000 C   0  0  0  0  0  0  0  0  0  0  0  0
   -5.0218   -0.9664    0.0000 N   0  0  0  0  0  0  0  0  0  0  0  0
  1  2  1  0
  2  3  1  0
  3  4  2  0
  3  5  1  0
  5  6  1  0
  6  7  1  0
  7  8  1  0
  7  9  1  0
  7 10  1  0
 10 11  1  0
 11 12  2  0
 12 13  1  0
 13 14  2  0
 14 15  1  0
 15 16  2  0
 16 17  1  0
 17 18  1  0
 17 19  2  0
 19 20  1  0
 20 21  1  0
 20 22  2  0
 14 23  1  0
 23 24  2  0
  5 25  1  0
 25 26  2  0
 26 27  1  0
 26  2  1  0
 24  5  1  0
 24 11  1  0
 22 15  1  0
M  END
>  <id>  (78) 
BACE_545

>  <pic50>  (78) 
7.6197886

>  <pic50_predicted>  (78) 
7.36282637489881

>  <deviation>  (78) 
0.442110283913915

>  <pic50_predicted_optimized>  (78) 
7.804936658812725

$$$$

     RDKit          2D

 26 29  0  0  0  0  0  0  0  0999 V2000
   -5.0218   -4.2298    0.0000 C   0  0  0  0  0  0  0  0  0  0  0  0
   -3.8083   -3.3481    0.0000 N   0  0  0  0  0  0  0  0  0  0  0  0
   -2.3817   -3.8116    0.0000 C   0  0  0  0  0  0  0  0  0  0  0  0
   -1.9182   -5.2382    0.0000 O   0  0  0  0  0  0  0  0  0  0  0  0
   -1.5000   -2.5981    0.0000 C   0  0  0  0  0  0  0  0  0  0  0  0
   -0.7500   -3.8971    0.0000 C   0  0  0  0  0  0  0  0  0  0  0  0
    0.7500   -3.8971    0.0000 C   0  0  0  0  0  0  0  0  0  0  0  0
    2.1595   -4.4101    0.0000 C   0  0  0  0  0  0  0  0  0  0  0  0
    0.4895   -5.3743    0.0000 C   0  0  0  0  0  0  0  0  0  0  0  0
    1.5000   -2.5981    0.0000 O   0  0  0  0  0  0  0  0  0  0  0  0
    0.7500   -1.2990    0.0000 C   0  0  0  0  0  0  0  0  0  0  0  0
    1.5000    0.0000    0.0000 C   0  0  0  0  0  0  0  0  0  0  0  0
    0.7500    1.2990    0.0000 C   0  0  0  0  0  0  0  0  0  0  0  0
   -0.7500    1.2990    0.0000 C   0  0  0  0  0  0  0  0  0  0  0  0
   -1.5000    2.5981    0.0000 C   0  0  0  0  0  0  0  0  0  0  0  0
   -0.7500    3.8971    0.0000 C   0  0  0  0  0  0  0  0  0  0  0  0
   -1.5000    5.1962    0.0000 N   0  0  0  0  0  0  0  0  0  0  0  0
   -3.0000    5.1962    0.0000 C   0  0  0  0  0  0  0  0  0  0  0  0
   -3.7500    3.8971    0.0000 C   0  0  0  0  0  0  0  0  0  0  0  0
   -5.2500    3.8971    0.0000 Cl  0  0  0  0  0  0  0  0  0  0  0  0
   -3.0000    2.5981    0.0000 C   0  0  0  0  0  0  0  0  0  0  0  0
   -1.5000    0.0000    0.0000 C   0  0  0  0  0  0  0  0  0  0  0  0
   -0.7500   -1.2990    0.0000 C   0  0  0  0  0  0  0  0  0  0  0  0
   -2.3817   -1.3846    0.0000 N   0  0  0  0  0  0  0  0  0  0  0  0
   -3.8083   -1.8481    0.0000 C   0  0  0  0  0  0  0  0  0  0  0  0
   -5.0218   -0.9664    0.0000 N   0  0  0  0  0  0  0  0  0  0  0  0
  1  2  1  0
  2  3  1  0
  3  4  2  0
  3  5  1  0
  5  6  1  0
  6  7  1  0
  7  8  1  0
  7  9  1  0
  7 10  1  0
 10 11  1  0
 11 12  2  0
 12 13  1  0
 13 14  2  0
 14 15  1  0
 15 16  2  0
 16 17  1  0
 17 18  2  0
 18 19  1  0
 19 20  1  0
 19 21  2  0
 14 22  1  0
 22 23  2  0
  5 24  1  0
 24 25  2  0
 25 26  1  0
 25  2  1  0
 23  5  1  0
 23 11  1  0
 21 15  1  0
M  END
>  <id>  (79) 
BACE_485

>  <pic50>  (79) 
7.7212462

>  <pic50_predicted>  (79) 
7.16973657556533

>  <deviation>  (79) 
0.015138104294898513

>  <pic50_predicted_optimized>  (79) 
7.184874679860228

$$$$

     RDKit          2D

 28 32  0  0  0  0  0  0  0  0999 V2000
   -5.5512    3.9339    0.0000 C   0  0  0  0  0  0  0  0  0  0  0  0
   -4.5475    2.8192    0.0000 O   0  0  0  0  0  0  0  0  0  0  0  0
   -3.0803    3.1311    0.0000 C   0  0  0  0  0  0  0  0  0  0  0  0
   -2.6168    4.5577    0.0000 C   0  0  0  0  0  0  0  0  0  0  0  0
   -1.1496    4.8695    0.0000 C   0  0  0  0  0  0  0  0  0  0  0  0
   -0.1459    3.7548    0.0000 C   0  0  0  0  0  0  0  0  0  0  0  0
   -0.6094    2.3282    0.0000 C   0  0  0  0  0  0  0  0  0  0  0  0
   -2.0766    2.0164    0.0000 C   0  0  0  0  0  0  0  0  0  0  0  0
    0.3943    1.2135    0.0000 C   0  0  0  0  0  0  0  0  0  0  0  0
    1.2760    0.0000    0.0000 C   0  0  0  0  0  0  0  0  0  0  0  0
    0.3943   -1.2135    0.0000 O   0  0  0  0  0  0  0  0  0  0  0  0
   -1.0323   -0.7500    0.0000 C   0  0  0  0  0  0  0  0  0  0  0  0
   -2.2458   -1.6317    0.0000 N   0  0  0  0  0  0  0  0  0  0  0  0
   -1.0323    0.7500    0.0000 N   0  0  0  0  0  0  0  0  0  0  0  0
    1.8615    1.5254    0.0000 C   0  0  0  0  0  0  0  0  0  0  0  0
    2.8652    0.4107    0.0000 C   0  0  0  0  0  0  0  0  0  0  0  0
    4.3324    0.7225    0.0000 C   0  0  0  0  0  0  0  0  0  0  0  0
    5.3361   -0.3922    0.0000 C   0  0  0  0  0  0  0  0  0  0  0  0
    4.8726   -1.8188    0.0000 C   0  0  0  0  0  0  0  0  0  0  0  0
    5.8763   -2.9335    0.0000 C   0  0  0  0  0  0  0  0  0  0  0  0
    7.3435   -2.6216    0.0000 C   0  0  0  0  0  0  0  0  0  0  0  0
    8.3472   -3.7363    0.0000 Cl  0  0  0  0  0  0  0  0  0  0  0  0
    7.8071   -1.1950    0.0000 C   0  0  0  0  0  0  0  0  0  0  0  0
    6.8034   -0.0803    0.0000 C   0  0  0  0  0  0  0  0  0  0  0  0
    4.7960    2.1491    0.0000 C   0  0  0  0  0  0  0  0  0  0  0  0
    3.7923    3.2638    0.0000 C   0  0  0  0  0  0  0  0  0  0  0  0
    2.3250    2.9520    0.0000 C   0  0  0  0  0  0  0  0  0  0  0  0
    1.3213    4.0667    0.0000 O   0  0  0  0  0  0  0  0  0  0  0  0
  1  2  1  0
  2  3  1  0
  3  4  2  0
  4  5  1  0
  5  6  2  0
  6  7  1  0
  7  8  2  0
  7  9  1  0
  9 10  1  0
 10 11  1  0
 11 12  1  0
 12 13  1  0
 12 14  2  0
  9 15  1  0
 15 16  2  0
 16 17  1  0
 17 18  1  0
 18 19  2  0
 19 20  1  0
 20 21  2  0
 21 22  1  0
 21 23  1  0
 23 24  2  0
 17 25  2  0
 25 26  1  0
 26 27  2  0
 27 28  1  0
  8  3  1  0
 14  9  1  0
 27 15  1  0
 28  6  1  0
 24 18  1  0
M  END
>  <id>  (80) 
BACE_1211

>  <pic50>  (80) 
5.6946487

>  <pic50_predicted>  (80) 
5.49266481671093

>  <deviation>  (80) 
0.07532612777520852

>  <pic50_predicted_optimized>  (80) 
5.567990944486139

$$$$

     RDKit          2D

 27 30  0  0  0  0  0  0  0  0999 V2000
    3.7500   -1.2990    0.0000 C   0  0  0  0  0  0  0  0  0  0  0  0
    3.0000    0.0000    0.0000 O   0  0  0  0  0  0  0  0  0  0  0  0
    1.5000    0.0000    0.0000 C   0  0  0  0  0  0  0  0  0  0  0  0
    0.7500   -1.2990    0.0000 C   0  0  0  0  0  0  0  0  0  0  0  0
   -0.7500   -1.2990    0.0000 C   0  0  0  0  0  0  0  0  0  0  0  0
   -1.5000    0.0000    0.0000 C   0  0  0  0  0  0  0  0  0  0  0  0
   -3.0000    0.0000    0.0000 C   0  0  0  0  0  0  0  0  0  0  0  0
   -2.8432   -1.4918    0.0000 C   0  0  0  0  0  0  0  0  0  0  0  0
   -4.0567   -2.3735    0.0000 C   0  0  0  0  0  0  0  0  0  0  0  0
   -3.8999   -3.8652    0.0000 C   0  0  0  0  0  0  0  0  0  0  0  0
   -2.5296   -4.4753    0.0000 C   0  0  0  0  0  0  0  0  0  0  0  0
   -1.3161   -3.5937    0.0000 C   0  0  0  0  0  0  0  0  0  0  0  0
    0.0542   -4.2038    0.0000 C   0  0  0  0  0  0  0  0  0  0  0  0
    0.2110   -5.6956    0.0000 C   0  0  0  0  0  0  0  0  0  0  0  0
    1.5813   -6.3057    0.0000 C   0  0  0  0  0  0  0  0  0  0  0  0
    2.7949   -5.4240    0.0000 C   0  0  0  0  0  0  0  0  0  0  0  0
    2.6381   -3.9322    0.0000 C   0  0  0  0  0  0  0  0  0  0  0  0
    3.8516   -3.0505    0.0000 Cl  0  0  0  0  0  0  0  0  0  0  0  0
    1.2677   -3.3221    0.0000 C   0  0  0  0  0  0  0  0  0  0  0  0
   -1.4729   -2.1019    0.0000 C   0  0  0  0  0  0  0  0  0  0  0  0
   -4.4672   -0.3119    0.0000 C   0  0  0  0  0  0  0  0  0  0  0  0
   -5.2172    0.9872    0.0000 O   0  0  0  0  0  0  0  0  0  0  0  0
   -4.2135    2.1019    0.0000 C   0  0  0  0  0  0  0  0  0  0  0  0
   -4.5254    3.5691    0.0000 N   0  0  0  0  0  0  0  0  0  0  0  0
   -2.8432    1.4918    0.0000 N   0  0  0  0  0  0  0  0  0  0  0  0
   -0.7500    1.2990    0.0000 C   0  0  0  0  0  0  0  0  0  0  0  0
    0.7500    1.2990    0.0000 C   0  0  0  0  0  0  0  0  0  0  0  0
  1  2  1  0
  2  3  1  0
  3  4  2  0
  4  5  1  0
  5  6  2  0
  6  7  1  0
  7  8  1  0
  8  9  2  0
  9 10  1  0
 10 11  2  0
 11 12  1  0
 12 13  1  0
 13 14  2  0
 14 15  1  0
 15 16  2  0
 16 17  1  0
 17 18  1  0
 17 19  2  0
 12 20  2  0
  7 21  1  0
 21 22  1  0
 22 23  1  0
 23 24  1  0
 23 25  2  0
  6 26  1  0
 26 27  2  0
 27  3  1  0
 25  7  1  0
 20  8  1  0
 19 13  1  0
M  END
>  <id>  (81) 
BACE_1215

>  <pic50>  (81) 
5.6861329

>  <pic50_predicted>  (81) 
5.68193149034851

>  <deviation>  (81) 
-0.08469188664099084

>  <pic50_predicted_optimized>  (81) 
5.597239603707519

$$$$

     RDKit          2D

 25 28  0  0  0  0  0  0  0  0999 V2000
   -1.5000   -2.5981    0.0000 N   0  0  0  0  0  0  0  0  0  0  0  0
   -0.7500   -1.2990    0.0000 C   0  0  0  0  0  0  0  0  0  0  0  0
    0.7500   -1.2990    0.0000 C   0  0  0  0  0  0  0  0  0  0  0  0
    1.5000    0.0000    0.0000 C   0  0  0  0  0  0  0  0  0  0  0  0
    0.7500    1.2990    0.0000 C   0  0  0  0  0  0  0  0  0  0  0  0
   -0.7500    1.2990    0.0000 C   0  0  0  0  0  0  0  0  0  0  0  0
   -1.5000    2.5981    0.0000 C   0  0  0  0  0  0  0  0  0  0  0  0
   -0.7500    3.8971    0.0000 N   0  0  0  0  0  0  0  0  0  0  0  0
   -1.3601    5.2674    0.0000 C   0  0  0  0  0  0  0  0  0  0  0  0
   -2.8273    5.5793    0.0000 C   0  0  0  0  0  0  0  0  0  0  0  0
   -3.2909    7.0059    0.0000 C   0  0  0  0  0  0  0  0  0  0  0  0
   -4.7581    7.3178    0.0000 C   0  0  0  0  0  0  0  0  0  0  0  0
   -5.7618    6.2030    0.0000 C   0  0  0  0  0  0  0  0  0  0  0  0
   -5.2982    4.7765    0.0000 C   0  0  0  0  0  0  0  0  0  0  0  0
   -3.8310    4.4646    0.0000 C   0  0  0  0  0  0  0  0  0  0  0  0
   -0.2454    6.2711    0.0000 C   0  0  0  0  0  0  0  0  0  0  0  0
    1.0537    5.5211    0.0000 C   0  0  0  0  0  0  0  0  0  0  0  0
    0.7418    4.0539    0.0000 C   0  0  0  0  0  0  0  0  0  0  0  0
    1.7455    2.9392    0.0000 C   0  0  0  0  0  0  0  0  0  0  0  0
    1.2820    1.5126    0.0000 C   0  0  0  0  0  0  0  0  0  0  0  0
    2.2856    0.3979    0.0000 C   0  0  0  0  0  0  0  0  0  0  0  0
    3.7529    0.7098    0.0000 C   0  0  0  0  0  0  0  0  0  0  0  0
    4.2164    2.1363    0.0000 C   0  0  0  0  0  0  0  0  0  0  0  0
    3.2127    3.2511    0.0000 C   0  0  0  0  0  0  0  0  0  0  0  0
   -1.5000    0.0000    0.0000 N   0  0  0  0  0  0  0  0  0  0  0  0
  1  2  1  0
  2  3  2  0
  3  4  1  0
  4  5  2  0
  5  6  1  0
  6  7  1  0
  7  8  1  0
  8  9  1  0
  9 10  1  0
 10 11  2  0
 11 12  1  0
 12 13  2  0
 13 14  1  0
 14 15  2  0
  9 16  2  0
 16 17  1  0
 17 18  2  0
 18 19  1  0
 19 20  2  0
 20 21  1  0
 21 22  2  0
 22 23  1  0
 23 24  2  0
  6 25  2  0
 25  2  1  0
 18  8  1  0
 24 19  1  0
 15 10  1  0
M  END
>  <id>  (82) 
BACE_1300

>  <pic50>  (82) 
5.2839966

>  <pic50_predicted>  (82) 
5.40926934088658

>  <deviation>  (82) 
0.0005610529823709802

>  <pic50_predicted_optimized>  (82) 
5.409830393868951

$$$$

     RDKit          2D

 26 29  0  0  0  0  0  0  0  0999 V2000
   -5.0218   -4.2298    0.0000 C   0  0  0  0  0  0  0  0  0  0  0  0
   -3.8083   -3.3481    0.0000 N   0  0  0  0  0  0  0  0  0  0  0  0
   -2.3817   -3.8116    0.0000 C   0  0  0  0  0  0  0  0  0  0  0  0
   -1.9182   -5.2382    0.0000 O   0  0  0  0  0  0  0  0  0  0  0  0
   -1.5000   -2.5981    0.0000 C   0  0  0  0  0  0  0  0  0  0  0  0
   -0.7500   -3.8971    0.0000 C   0  0  0  0  0  0  0  0  0  0  0  0
    0.7500   -3.8971    0.0000 C   0  0  0  0  0  0  0  0  0  0  0  0
    2.1595   -4.4101    0.0000 C   0  0  0  0  0  0  0  0  0  0  0  0
    0.4895   -5.3743    0.0000 C   0  0  0  0  0  0  0  0  0  0  0  0
    1.5000   -2.5981    0.0000 O   0  0  0  0  0  0  0  0  0  0  0  0
    0.7500   -1.2990    0.0000 C   0  0  0  0  0  0  0  0  0  0  0  0
    1.5000    0.0000    0.0000 C   0  0  0  0  0  0  0  0  0  0  0  0
    0.7500    1.2990    0.0000 C   0  0  0  0  0  0  0  0  0  0  0  0
   -0.7500    1.2990    0.0000 C   0  0  0  0  0  0  0  0  0  0  0  0
   -1.5000    2.5981    0.0000 C   0  0  0  0  0  0  0  0  0  0  0  0
   -0.7500    3.8971    0.0000 C   0  0  0  0  0  0  0  0  0  0  0  0
   -1.5000    5.1962    0.0000 C   0  0  0  0  0  0  0  0  0  0  0  0
   -3.0000    5.1962    0.0000 C   0  0  0  0  0  0  0  0  0  0  0  0
   -3.7500    3.8971    0.0000 C   0  0  0  0  0  0  0  0  0  0  0  0
   -5.2500    3.8971    0.0000 F   0  0  0  0  0  0  0  0  0  0  0  0
   -3.0000    2.5981    0.0000 C   0  0  0  0  0  0  0  0  0  0  0  0
   -1.5000    0.0000    0.0000 C   0  0  0  0  0  0  0  0  0  0  0  0
   -0.7500   -1.2990    0.0000 C   0  0  0  0  0  0  0  0  0  0  0  0
   -2.3817   -1.3846    0.0000 N   0  0  0  0  0  0  0  0  0  0  0  0
   -3.8083   -1.8481    0.0000 C   0  0  0  0  0  0  0  0  0  0  0  0
   -5.0218   -0.9664    0.0000 N   0  0  0  0  0  0  0  0  0  0  0  0
  1  2  1  0
  2  3  1  0
  3  4  2  0
  3  5  1  0
  5  6  1  0
  6  7  1  0
  7  8  1  0
  7  9  1  0
  7 10  1  0
 10 11  1  0
 11 12  2  0
 12 13  1  0
 13 14  2  0
 14 15  1  0
 15 16  2  0
 16 17  1  0
 17 18  2  0
 18 19  1  0
 19 20  1  0
 19 21  2  0
 14 22  1  0
 22 23  2  0
  5 24  1  0
 24 25  2  0
 25 26  1  0
 25  2  1  0
 23  5  1  0
 23 11  1  0
 21 15  1  0
M  END
>  <id>  (83) 
BACE_816

>  <pic50>  (83) 
7.004365

>  <pic50_predicted>  (83) 
6.93215824404738

>  <deviation>  (83) 
-0.10758269211313691

>  <pic50_predicted_optimized>  (83) 
6.824575551934243

$$$$

     RDKit          2D

 24 27  0  0  0  0  0  0  0  0999 V2000
   -0.0000   -5.1073    0.0000 N   0  0  0  0  0  0  0  0  0  0  0  0
   -0.0000   -3.6073    0.0000 C   0  0  0  0  0  0  0  0  0  0  0  0
    1.2135   -2.7256    0.0000 N   0  0  0  0  0  0  0  0  0  0  0  0
    0.7500   -1.2990    0.0000 C   0  0  0  0  0  0  0  0  0  0  0  0
    2.2418   -1.4558    0.0000 C   0  0  0  0  0  0  0  0  0  0  0  0
    2.8519   -2.8261    0.0000 C   0  0  0  0  0  0  0  0  0  0  0  0
    4.3437   -2.9829    0.0000 C   0  0  0  0  0  0  0  0  0  0  0  0
    5.2253   -1.7694    0.0000 C   0  0  0  0  0  0  0  0  0  0  0  0
    4.6152   -0.3991    0.0000 C   0  0  0  0  0  0  0  0  0  0  0  0
    5.4969    0.8144    0.0000 C   0  0  0  0  0  0  0  0  0  0  0  0
    6.9887    0.6576    0.0000 C   0  0  0  0  0  0  0  0  0  0  0  0
    7.8704    1.8712    0.0000 C   0  0  0  0  0  0  0  0  0  0  0  0
    9.3622    1.7144    0.0000 F   0  0  0  0  0  0  0  0  0  0  0  0
    7.2603    3.2415    0.0000 C   0  0  0  0  0  0  0  0  0  0  0  0
    5.7685    3.3983    0.0000 C   0  0  0  0  0  0  0  0  0  0  0  0
    5.1584    4.7686    0.0000 Cl  0  0  0  0  0  0  0  0  0  0  0  0
    4.8868    2.1847    0.0000 C   0  0  0  0  0  0  0  0  0  0  0  0
    3.1235   -0.2423    0.0000 C   0  0  0  0  0  0  0  0  0  0  0  0
    1.5000    0.0000    0.0000 C   0  0  0  0  0  0  0  0  0  0  0  0
    0.7500    1.2990    0.0000 C   0  0  0  0  0  0  0  0  0  0  0  0
   -0.7500    1.2990    0.0000 C   0  0  0  0  0  0  0  0  0  0  0  0
   -1.5000    0.0000    0.0000 C   0  0  0  0  0  0  0  0  0  0  0  0
   -0.7500   -1.2990    0.0000 C   0  0  0  0  0  0  0  0  0  0  0  0
   -1.2135   -2.7256    0.0000 O   0  0  0  0  0  0  0  0  0  0  0  0
  1  2  1  0
  2  3  2  0
  3  4  1  0
  4  5  1  0
  5  6  2  0
  6  7  1  0
  7  8  2  0
  8  9  1  0
  9 10  1  0
 10 11  2  0
 11 12  1  0
 12 13  1  0
 12 14  2  0
 14 15  1  0
 15 16  1  0
 15 17  2  0
  9 18  2  0
  4 19  1  0
 19 20  1  0
 20 21  1  0
 21 22  1  0
 22 23  1  0
 23 24  1  0
 24  2  1  0
 23  4  1  0
 18  5  1  0
 17 10  1  0
M  END
>  <id>  (84) 
BACE_1432

>  <pic50>  (84) 
4.5751185

>  <pic50_predicted>  (84) 
4.789348542138

>  <deviation>  (84) 
-0.004074371110953121

>  <pic50_predicted_optimized>  (84) 
4.785274171027047

$$$$

     RDKit          2D

 32 36  0  0  0  0  0  0  0  0999 V2000
   -6.0000    0.0000    0.0000 N   0  0  0  0  0  0  0  0  0  0  0  0
   -5.2500    1.2990    0.0000 C   0  0  0  0  0  0  0  0  0  0  0  0
   -6.0000    2.5981    0.0000 C   0  0  0  0  0  0  0  0  0  0  0  0
   -5.2500    3.8971    0.0000 C   0  0  0  0  0  0  0  0  0  0  0  0
   -3.7500    3.8971    0.0000 C   0  0  0  0  0  0  0  0  0  0  0  0
   -3.0000    2.5981    0.0000 C   0  0  0  0  0  0  0  0  0  0  0  0
   -1.5000    2.5981    0.0000 C   0  0  0  0  0  0  0  0  0  0  0  0
   -0.7500    3.8971    0.0000 N   0  0  0  0  0  0  0  0  0  0  0  0
   -1.3601    5.2674    0.0000 C   0  0  0  0  0  0  0  0  0  0  0  0
   -2.8273    5.5793    0.0000 C   0  0  0  0  0  0  0  0  0  0  0  0
   -3.8310    4.4646    0.0000 C   0  0  0  0  0  0  0  0  0  0  0  0
   -5.2982    4.7765    0.0000 C   0  0  0  0  0  0  0  0  0  0  0  0
   -5.7618    6.2030    0.0000 C   0  0  0  0  0  0  0  0  0  0  0  0
   -4.7581    7.3178    0.0000 C   0  0  0  0  0  0  0  0  0  0  0  0
   -3.2909    7.0059    0.0000 C   0  0  0  0  0  0  0  0  0  0  0  0
   -0.2454    6.2711    0.0000 C   0  0  0  0  0  0  0  0  0  0  0  0
    1.0537    5.5211    0.0000 C   0  0  0  0  0  0  0  0  0  0  0  0
    0.7418    4.0539    0.0000 C   0  0  0  0  0  0  0  0  0  0  0  0
    1.7455    2.9392    0.0000 C   0  0  0  0  0  0  0  0  0  0  0  0
    1.2820    1.5126    0.0000 C   0  0  0  0  0  0  0  0  0  0  0  0
    2.2856    0.3979    0.0000 C   0  0  0  0  0  0  0  0  0  0  0  0
    3.7529    0.7098    0.0000 C   0  0  0  0  0  0  0  0  0  0  0  0
    4.7566   -0.4050    0.0000 C   0  0  0  0  0  0  0  0  0  0  0  0
    4.2930   -1.8315    0.0000 O   0  0  0  0  0  0  0  0  0  0  0  0
    6.2238   -0.0931    0.0000 N   0  0  0  0  0  0  0  0  0  0  0  0
    7.2275   -1.2078    0.0000 C   0  0  0  0  0  0  0  0  0  0  0  0
    7.1490   -2.7058    0.0000 C   0  0  0  0  0  0  0  0  0  0  0  0
    8.6469   -2.7843    0.0000 C   0  0  0  0  0  0  0  0  0  0  0  0
    8.7254   -1.2863    0.0000 C   0  0  0  0  0  0  0  0  0  0  0  0
    4.2164    2.1363    0.0000 C   0  0  0  0  0  0  0  0  0  0  0  0
    3.2127    3.2511    0.0000 C   0  0  0  0  0  0  0  0  0  0  0  0
   -3.7500    1.2990    0.0000 N   0  0  0  0  0  0  0  0  0  0  0  0
  1  2  1  0
  2  3  2  0
  3  4  1  0
  4  5  2  0
  5  6  1  0
  6  7  1  0
  7  8  1  0
  8  9  1  0
  9 10  1  0
 10 11  2  0
 11 12  1  0
 12 13  2  0
 13 14  1  0
 14 15  2  0
  9 16  2  0
 16 17  1  0
 17 18  2  0
 18 19  1  0
 19 20  2  0
 20 21  1  0
 21 22  2  0
 22 23  1  0
 23 24  2  0
 23 25  1  0
 25 26  1  0
 26 27  1  0
 27 28  1  0
 28 29  1  0
 22 30  1  0
 30 31  2  0
  6 32  2  0
 32  2  1  0
 18  8  1  0
 31 19  1  0
 15 10  1  0
 29 26  1  0
M  END
>  <id>  (85) 
BACE_1265

>  <pic50>  (85) 
5.4685211

>  <pic50_predicted>  (85) 
5.8752046083705

>  <deviation>  (85) 
0.02978437783200744

>  <pic50_predicted_optimized>  (85) 
5.904988986202508

$$$$

     RDKit          2D

 31 35  0  0  0  0  0  0  0  0999 V2000
   -6.0000    0.0000    0.0000 N   0  0  0  0  0  0  0  0  0  0  0  0
   -5.2500    1.2990    0.0000 C   0  0  0  0  0  0  0  0  0  0  0  0
   -6.0000    2.5981    0.0000 C   0  0  0  0  0  0  0  0  0  0  0  0
   -5.2500    3.8971    0.0000 C   0  0  0  0  0  0  0  0  0  0  0  0
   -3.7500    3.8971    0.0000 C   0  0  0  0  0  0  0  0  0  0  0  0
   -3.0000    2.5981    0.0000 C   0  0  0  0  0  0  0  0  0  0  0  0
   -1.5000    2.5981    0.0000 C   0  0  0  0  0  0  0  0  0  0  0  0
   -0.7500    3.8971    0.0000 N   0  0  0  0  0  0  0  0  0  0  0  0
   -1.3601    5.2674    0.0000 C   0  0  0  0  0  0  0  0  0  0  0  0
   -2.8273    5.5793    0.0000 C   0  0  0  0  0  0  0  0  0  0  0  0
   -3.8310    4.4646    0.0000 C   0  0  0  0  0  0  0  0  0  0  0  0
   -5.2982    4.7765    0.0000 C   0  0  0  0  0  0  0  0  0  0  0  0
   -5.7618    6.2030    0.0000 C   0  0  0  0  0  0  0  0  0  0  0  0
   -4.7581    7.3178    0.0000 C   0  0  0  0  0  0  0  0  0  0  0  0
   -3.2909    7.0059    0.0000 C   0  0  0  0  0  0  0  0  0  0  0  0
   -0.2454    6.2711    0.0000 C   0  0  0  0  0  0  0  0  0  0  0  0
    1.0537    5.5211    0.0000 C   0  0  0  0  0  0  0  0  0  0  0  0
    0.7418    4.0539    0.0000 C   0  0  0  0  0  0  0  0  0  0  0  0
    1.7455    2.9392    0.0000 C   0  0  0  0  0  0  0  0  0  0  0  0
    1.2820    1.5126    0.0000 C   0  0  0  0  0  0  0  0  0  0  0  0
    2.2856    0.3979    0.0000 C   0  0  0  0  0  0  0  0  0  0  0  0
    3.7529    0.7098    0.0000 C   0  0  0  0  0  0  0  0  0  0  0  0
    4.7566   -0.4050    0.0000 C   0  0  0  0  0  0  0  0  0  0  0  0
    4.2930   -1.8315    0.0000 O   0  0  0  0  0  0  0  0  0  0  0  0
    6.2238   -0.0931    0.0000 N   0  0  0  0  0  0  0  0  0  0  0  0
    7.2275   -1.2078    0.0000 C   0  0  0  0  0  0  0  0  0  0  0  0
    8.6541   -1.6713    0.0000 C   0  0  0  0  0  0  0  0  0  0  0  0
    7.5394   -2.6750    0.0000 C   0  0  0  0  0  0  0  0  0  0  0  0
    4.2164    2.1363    0.0000 C   0  0  0  0  0  0  0  0  0  0  0  0
    3.2127    3.2511    0.0000 C   0  0  0  0  0  0  0  0  0  0  0  0
   -3.7500    1.2990    0.0000 N   0  0  0  0  0  0  0  0  0  0  0  0
  1  2  1  0
  2  3  2  0
  3  4  1  0
  4  5  2  0
  5  6  1  0
  6  7  1  0
  7  8  1  0
  8  9  1  0
  9 10  1  0
 10 11  2  0
 11 12  1  0
 12 13  2  0
 13 14  1  0
 14 15  2  0
  9 16  2  0
 16 17  1  0
 17 18  2  0
 18 19  1  0
 19 20  2  0
 20 21  1  0
 21 22  2  0
 22 23  1  0
 23 24  2  0
 23 25  1  0
 25 26  1  0
 26 27  1  0
 27 28  1  0
 22 29  1  0
 29 30  2  0
  6 31  2  0
 31  2  1  0
 18  8  1  0
 30 19  1  0
 15 10  1  0
 28 26  1  0
M  END
>  <id>  (86) 
BACE_1138

>  <pic50>  (86) 
5.9208188

>  <pic50_predicted>  (86) 
5.78529329289204

>  <deviation>  (86) 
-0.025295953973058217

>  <pic50_predicted_optimized>  (86) 
5.759997338918981

$$$$

     RDKit          2D

 29 32  0  0  0  0  0  0  0  0999 V2000
    6.0000   -2.5981    0.0000 C   0  0  0  0  0  0  0  0  0  0  0  0
    5.2500   -1.2990    0.0000 C   0  0  0  0  0  0  0  0  0  0  0  0
    3.7500   -1.2990    0.0000 C   0  0  0  0  0  0  0  0  0  0  0  0
    3.0000    0.0000    0.0000 O   0  0  0  0  0  0  0  0  0  0  0  0
    1.5000    0.0000    0.0000 C   0  0  0  0  0  0  0  0  0  0  0  0
    0.7500   -1.2990    0.0000 C   0  0  0  0  0  0  0  0  0  0  0  0
   -0.7500   -1.2990    0.0000 C   0  0  0  0  0  0  0  0  0  0  0  0
   -1.5000    0.0000    0.0000 C   0  0  0  0  0  0  0  0  0  0  0  0
   -0.7500    1.2990    0.0000 C   0  0  0  0  0  0  0  0  0  0  0  0
   -1.5000    2.5981    0.0000 C   0  0  0  0  0  0  0  0  0  0  0  0
   -0.7500    3.8971    0.0000 C   0  0  0  0  0  0  0  0  0  0  0  0
   -1.5000    5.1962    0.0000 C   0  0  0  0  0  0  0  0  0  0  0  0
   -3.0000    5.1962    0.0000 C   0  0  0  0  0  0  0  0  0  0  0  0
   -3.7500    3.8971    0.0000 C   0  0  0  0  0  0  0  0  0  0  0  0
   -5.2500    3.8971    0.0000 C   0  0  0  0  0  0  0  0  0  0  0  0
   -6.5490    3.1471    0.0000 C   0  0  0  0  0  0  0  0  0  0  0  0
   -6.5490    4.6471    0.0000 C   0  0  0  0  0  0  0  0  0  0  0  0
   -7.2990    5.9462    0.0000 C   0  0  0  0  0  0  0  0  0  0  0  0
   -5.8895    6.4592    0.0000 C   0  0  0  0  0  0  0  0  0  0  0  0
   -8.4481    4.9820    0.0000 C   0  0  0  0  0  0  0  0  0  0  0  0
   -9.8576    5.4950    0.0000 C   0  0  0  0  0  0  0  0  0  0  0  0
  -11.0067    4.5308    0.0000 O   0  0  0  0  0  0  0  0  0  0  0  0
  -10.1181    6.9722    0.0000 N   0  0  0  0  0  0  0  0  0  0  0  0
  -11.5277    7.4852    0.0000 C   0  0  0  0  0  0  0  0  0  0  0  0
   -8.9690    7.9364    0.0000 C   0  0  0  0  0  0  0  0  0  0  0  0
   -9.2295    9.4136    0.0000 N   0  0  0  0  0  0  0  0  0  0  0  0
   -7.5595    7.4234    0.0000 N   0  0  0  0  0  0  0  0  0  0  0  0
   -3.0000    2.5981    0.0000 C   0  0  0  0  0  0  0  0  0  0  0  0
    0.7500    1.2990    0.0000 C   0  0  0  0  0  0  0  0  0  0  0  0
  1  2  1  0
  2  3  1  0
  3  4  1  0
  4  5  1  0
  5  6  2  0
  6  7  1  0
  7  8  2  0
  8  9  1  0
  9 10  1  0
 10 11  2  0
 11 12  1  0
 12 13  2  0
 13 14  1  0
 14 15  1  0
 15 16  1  0
 16 17  1  0
 17 18  1  0
 18 19  1  0
 18 20  1  0
 20 21  1  0
 21 22  2  0
 21 23  1  0
 23 24  1  0
 23 25  1  0
 25 26  1  0
 25 27  2  0
 14 28  2  0
  9 29  2  0
 29  5  1  0
 28 10  1  0
 17 15  1  0
 27 18  1  0
M  END
>  <id>  (87) 
BACE_1341

>  <pic50>  (87) 
5.0757208

>  <pic50_predicted>  (87) 
5.97594320395416

>  <deviation>  (87) 
-0.11613298660651676

>  <pic50_predicted_optimized>  (87) 
5.859810217347643

$$$$

     RDKit          2D

 26 29  0  0  0  0  0  0  0  0999 V2000
    2.3638   -6.3821    0.0000 C   0  0  0  0  0  0  0  0  0  0  0  0
    1.7537   -5.0118    0.0000 N   0  0  0  0  0  0  0  0  0  0  0  0
    2.5037   -3.7128    0.0000 C   0  0  0  0  0  0  0  0  0  0  0  0
    3.9955   -3.5560    0.0000 O   0  0  0  0  0  0  0  0  0  0  0  0
    1.5000   -2.5981    0.0000 C   0  0  0  0  0  0  0  0  0  0  0  0
    2.7135   -1.7164    0.0000 C   0  0  0  0  0  0  0  0  0  0  0  0
    2.7135   -0.2164    0.0000 C   0  0  0  0  0  0  0  0  0  0  0  0
    4.1401    0.2471    0.0000 C   0  0  0  0  0  0  0  0  0  0  0  0
    5.0218   -0.9664    0.0000 S   0  0  0  0  0  0  0  0  0  0  0  0
    4.1401   -2.1799    0.0000 C   0  0  0  0  0  0  0  0  0  0  0  0
    0.7500   -1.2990    0.0000 C   0  0  0  0  0  0  0  0  0  0  0  0
    1.5000    0.0000    0.0000 C   0  0  0  0  0  0  0  0  0  0  0  0
    0.7500    1.2990    0.0000 C   0  0  0  0  0  0  0  0  0  0  0  0
   -0.7500    1.2990    0.0000 C   0  0  0  0  0  0  0  0  0  0  0  0
   -1.5000    2.5981    0.0000 F   0  0  0  0  0  0  0  0  0  0  0  0
   -1.5000    0.0000    0.0000 C   0  0  0  0  0  0  0  0  0  0  0  0
   -3.0000    0.0000    0.0000 C   0  0  0  0  0  0  0  0  0  0  0  0
   -3.7500    1.2990    0.0000 C   0  0  0  0  0  0  0  0  0  0  0  0
   -5.2500    1.2990    0.0000 C   0  0  0  0  0  0  0  0  0  0  0  0
   -6.0000    0.0000    0.0000 C   0  0  0  0  0  0  0  0  0  0  0  0
   -5.2500   -1.2990    0.0000 N   0  0  0  0  0  0  0  0  0  0  0  0
   -3.7500   -1.2990    0.0000 C   0  0  0  0  0  0  0  0  0  0  0  0
   -0.7500   -1.2990    0.0000 C   0  0  0  0  0  0  0  0  0  0  0  0
    0.1297   -3.2082    0.0000 N   0  0  0  0  0  0  0  0  0  0  0  0
    0.2865   -4.7000    0.0000 C   0  0  0  0  0  0  0  0  0  0  0  0
   -0.8282   -5.7037    0.0000 N   0  0  0  0  0  0  0  0  0  0  0  0
  1  2  1  0
  2  3  1  0
  3  4  2  0
  3  5  1  0
  5  6  1  0
  6  7  1  0
  7  8  2  0
  8  9  1  0
  9 10  1  0
  5 11  1  0
 11 12  2  0
 12 13  1  0
 13 14  2  0
 14 15  1  0
 14 16  1  0
 16 17  1  0
 17 18  2  0
 18 19  1  0
 19 20  2  0
 20 21  1  0
 21 22  2  0
 16 23  2  0
  5 24  1  0
 24 25  2  0
 25 26  1  0
 25  2  1  0
 10  6  2  0
 23 11  1  0
 22 17  1  0
M  END
>  <id>  (88) 
BACE_803

>  <pic50>  (88) 
7.0457573

>  <pic50_predicted>  (88) 
7.0122368073844

>  <deviation>  (88) 
0.3955486284104004

>  <pic50_predicted_optimized>  (88) 
7.4077854357948

$$$$

     RDKit          2D

 16 17  0  0  0  0  0  0  0  0999 V2000
    5.2500   -1.2990    0.0000 N   0  0  0  0  0  4  0  0  0  0  0  0
    3.7500   -1.2990    0.0000 C   0  0  0  0  0  0  0  0  0  0  0  0
    3.0000    0.0000    0.0000 C   0  0  0  0  0  0  0  0  0  0  0  0
    1.5000    0.0000    0.0000 C   0  0  0  0  0  0  0  0  0  0  0  0
    0.7500   -1.2990    0.0000 C   0  0  0  0  0  0  0  0  0  0  0  0
   -0.7500   -1.2990    0.0000 C   0  0  0  0  0  0  0  0  0  0  0  0
   -1.5000    0.0000    0.0000 C   0  0  0  0  0  0  0  0  0  0  0  0
   -3.0000    0.0000    0.0000 O   0  0  0  0  0  0  0  0  0  0  0  0
   -0.7500    1.2990    0.0000 C   0  0  0  0  0  0  0  0  0  0  0  0
   -1.5000    2.5981    0.0000 C   0  0  0  0  0  0  0  0  0  0  0  0
   -0.7500    3.8971    0.0000 C   0  0  0  0  0  0  0  0  0  0  0  0
   -1.5000    5.1962    0.0000 C   0  0  0  0  0  0  0  0  0  0  0  0
   -3.0000    5.1962    0.0000 C   0  0  0  0  0  0  0  0  0  0  0  0
   -3.7500    3.8971    0.0000 C   0  0  0  0  0  0  0  0  0  0  0  0
   -3.0000    2.5981    0.0000 C   0  0  0  0  0  0  0  0  0  0  0  0
    0.7500    1.2990    0.0000 C   0  0  0  0  0  0  0  0  0  0  0  0
  1  2  1  0
  2  3  1  0
  3  4  1  0
  4  5  2  0
  5  6  1  0
  6  7  2  0
  7  8  1  0
  7  9  1  0
  9 10  1  0
 10 11  1  0
 11 12  1  0
 12 13  1  0
 13 14  1  0
 14 15  1  0
  9 16  2  0
 16  4  1  0
 15 10  1  0
M  CHG  1   1   1
M  END
>  <id>  (89) 
BACE_271

>  <pic50>  (89) 
3.6575773

>  <pic50_predicted>  (89) 
3.20295195338486

>  <deviation>  (89) 
-0.34481368480696456

>  <pic50_predicted_optimized>  (89) 
2.8581382685778953

$$$$

     RDKit          2D

 25 28  0  0  0  0  0  0  0  0999 V2000
   -5.0218   -4.2298    0.0000 C   0  0  0  0  0  0  0  0  0  0  0  0
   -3.8083   -3.3481    0.0000 N   0  0  0  0  0  0  0  0  0  0  0  0
   -2.3817   -3.8116    0.0000 C   0  0  0  0  0  0  0  0  0  0  0  0
   -1.9182   -5.2382    0.0000 O   0  0  0  0  0  0  0  0  0  0  0  0
   -1.5000   -2.5981    0.0000 C   0  0  0  0  0  0  0  0  0  0  0  0
   -0.7500   -3.8971    0.0000 C   0  0  0  0  0  0  0  0  0  0  0  0
    0.7500   -3.8971    0.0000 C   0  0  0  0  0  0  0  0  0  0  0  0
    2.1595   -4.4101    0.0000 C   0  0  0  0  0  0  0  0  0  0  0  0
    0.4895   -5.3743    0.0000 C   0  0  0  0  0  0  0  0  0  0  0  0
    1.5000   -2.5981    0.0000 O   0  0  0  0  0  0  0  0  0  0  0  0
    0.7500   -1.2990    0.0000 C   0  0  0  0  0  0  0  0  0  0  0  0
    1.5000    0.0000    0.0000 C   0  0  0  0  0  0  0  0  0  0  0  0
    0.7500    1.2990    0.0000 C   0  0  0  0  0  0  0  0  0  0  0  0
   -0.7500    1.2990    0.0000 C   0  0  0  0  0  0  0  0  0  0  0  0
   -1.5000    2.5981    0.0000 C   0  0  0  0  0  0  0  0  0  0  0  0
   -0.7500    3.8971    0.0000 C   0  0  0  0  0  0  0  0  0  0  0  0
   -1.5000    5.1962    0.0000 C   0  0  0  0  0  0  0  0  0  0  0  0
   -3.0000    5.1962    0.0000 C   0  0  0  0  0  0  0  0  0  0  0  0
   -3.7500    3.8971    0.0000 C   0  0  0  0  0  0  0  0  0  0  0  0
   -3.0000    2.5981    0.0000 C   0  0  0  0  0  0  0  0  0  0  0  0
   -1.5000    0.0000    0.0000 C   0  0  0  0  0  0  0  0  0  0  0  0
   -0.7500   -1.2990    0.0000 C   0  0  0  0  0  0  0  0  0  0  0  0
   -2.3817   -1.3846    0.0000 N   0  0  0  0  0  0  0  0  0  0  0  0
   -3.8083   -1.8481    0.0000 C   0  0  0  0  0  0  0  0  0  0  0  0
   -5.0218   -0.9664    0.0000 N   0  0  0  0  0  0  0  0  0  0  0  0
  1  2  1  0
  2  3  1  0
  3  4  2  0
  3  5  1  0
  5  6  1  0
  6  7  1  0
  7  8  1  0
  7  9  1  0
  7 10  1  0
 10 11  1  0
 11 12  2  0
 12 13  1  0
 13 14  2  0
 14 15  1  0
 15 16  2  0
 16 17  1  0
 17 18  2  0
 18 19  1  0
 19 20  2  0
 14 21  1  0
 21 22  2  0
  5 23  1  0
 23 24  2  0
 24 25  1  0
 24  2  1  0
 22  5  1  0
 22 11  1  0
 20 15  1  0
M  END
>  <id>  (90) 
BACE_1019

>  <pic50>  (90) 
6.3419886

>  <pic50_predicted>  (90) 
5.17353025604393

>  <deviation>  (90) 
0.47211458074885326

>  <pic50_predicted_optimized>  (90) 
5.6456448367927825

$$$$

     RDKit          2D

 33 37  0  0  0  0  0  0  0  0999 V2000
   -3.4140    1.9635    0.0000 N   0  0  0  0  0  0  0  0  0  0  0  0
   -1.9140    1.9635    0.0000 C   0  0  0  0  0  0  0  0  0  0  0  0
   -1.0323    3.1771    0.0000 N   0  0  0  0  0  4  0  0  0  0  0  0
    0.3943    2.7135    0.0000 C   0  0  0  0  0  0  0  0  0  0  0  0
    1.8861    2.5567    0.0000 C   0  0  0  0  0  0  0  0  0  0  0  0
    2.4962    1.1864    0.0000 C   0  0  0  0  0  0  0  0  0  0  0  0
    3.9880    1.0296    0.0000 C   0  0  0  0  0  0  0  0  0  0  0  0
    4.8696    2.2431    0.0000 C   0  0  0  0  0  0  0  0  0  0  0  0
    6.3614    2.0864    0.0000 O   0  0  0  0  0  0  0  0  0  0  0  0
    6.9715    0.7160    0.0000 C   0  0  0  0  0  0  0  0  0  0  0  0
    7.5816   -0.6543    0.0000 F   0  0  0  0  0  0  0  0  0  0  0  0
    8.3419    1.3261    0.0000 F   0  0  0  0  0  0  0  0  0  0  0  0
    5.6012    0.1059    0.0000 F   0  0  0  0  0  0  0  0  0  0  0  0
    4.2595    3.6135    0.0000 C   0  0  0  0  0  0  0  0  0  0  0  0
    2.7678    3.7703    0.0000 C   0  0  0  0  0  0  0  0  0  0  0  0
    0.7062    4.1807    0.0000 C   0  0  0  0  0  0  0  0  0  0  0  0
    2.1328    4.6443    0.0000 C   0  0  0  0  0  0  0  0  0  0  0  0
    2.4446    6.1115    0.0000 C   0  0  0  0  0  0  0  0  0  0  0  0
    1.3299    7.1152    0.0000 C   0  0  0  0  0  0  0  0  0  0  0  0
   -0.0967    6.6517    0.0000 C   0  0  0  0  0  0  0  0  0  0  0  0
   -1.2114    7.6554    0.0000 C   0  0  0  0  0  0  0  0  0  0  0  0
   -0.8995    9.1226    0.0000 C   0  0  0  0  0  0  0  0  0  0  0  0
   -2.0143   10.1263    0.0000 C   0  0  0  0  0  0  0  0  0  0  0  0
   -3.4408    9.6628    0.0000 C   0  0  0  0  0  0  0  0  0  0  0  0
   -3.7527    8.1955    0.0000 N   0  0  0  0  0  0  0  0  0  0  0  0
   -2.6380    7.1918    0.0000 C   0  0  0  0  0  0  0  0  0  0  0  0
   -2.9499    5.7246    0.0000 F   0  0  0  0  0  0  0  0  0  0  0  0
   -0.4086    5.1844    0.0000 C   0  0  0  0  0  0  0  0  0  0  0  0
    0.3943    1.2135    0.0000 C   0  0  0  0  0  0  0  0  0  0  0  0
    1.2760    0.0000    0.0000 N   0  0  0  0  0  0  0  0  0  0  0  0
    0.3943   -1.2135    0.0000 C   0  0  0  0  0  0  0  0  0  0  0  0
   -1.0323   -0.7500    0.0000 C   0  0  0  0  0  0  0  0  0  0  0  0
   -1.0323    0.7500    0.0000 N   0  0  0  0  0  0  0  0  0  0  0  0
  1  2  1  0
  2  3  2  0
  3  4  1  0
  4  5  1  0
  5  6  2  0
  6  7  1  0
  7  8  2  0
  8  9  1  0
  9 10  1  0
 10 11  1  0
 10 12  1  0
 10 13  1  0
  8 14  1  0
 14 15  2  0
  4 16  1  0
 16 17  2  0
 17 18  1  0
 18 19  2  0
 19 20  1  0
 20 21  1  0
 21 22  2  0
 22 23  1  0
 23 24  2  0
 24 25  1  0
 25 26  2  0
 26 27  1  0
 20 28  2  0
  4 29  1  0
 29 30  2  0
 30 31  1  0
 31 32  1  0
 32 33  1  0
 33  2  1  0
 15  5  1  0
 28 16  1  0
 33 29  1  0
 26 21  1  0
M  CHG  1   3   1
M  END
>  <id>  (91) 
BACE_775

>  <pic50>  (91) 
7.09691

>  <pic50_predicted>  (91) 
7.00595264434778

>  <deviation>  (91) 
0.037627997014000505

>  <pic50_predicted_optimized>  (91) 
7.043580641361781

$$$$

     RDKit          2D

 25 28  0  0  0  0  0  0  0  0999 V2000
   -5.0218   -4.2298    0.0000 C   0  0  0  0  0  0  0  0  0  0  0  0
   -3.8083   -3.3481    0.0000 N   0  0  0  0  0  0  0  0  0  0  0  0
   -2.3817   -3.8116    0.0000 C   0  0  0  0  0  0  0  0  0  0  0  0
   -1.9182   -5.2382    0.0000 O   0  0  0  0  0  0  0  0  0  0  0  0
   -1.5000   -2.5981    0.0000 C   0  0  0  0  0  0  0  0  0  0  0  0
   -0.7500   -3.8971    0.0000 C   0  0  0  0  0  0  0  0  0  0  0  0
    0.7500   -3.8971    0.0000 C   0  0  0  0  0  0  0  0  0  0  0  0
    2.1595   -4.4101    0.0000 C   0  0  0  0  0  0  0  0  0  0  0  0
    0.4895   -5.3743    0.0000 C   0  0  0  0  0  0  0  0  0  0  0  0
    1.5000   -2.5981    0.0000 O   0  0  0  0  0  0  0  0  0  0  0  0
    0.7500   -1.2990    0.0000 C   0  0  0  0  0  0  0  0  0  0  0  0
    1.5000    0.0000    0.0000 C   0  0  0  0  0  0  0  0  0  0  0  0
    0.7500    1.2990    0.0000 C   0  0  0  0  0  0  0  0  0  0  0  0
   -0.7500    1.2990    0.0000 C   0  0  0  0  0  0  0  0  0  0  0  0
   -1.5000    2.5981    0.0000 C   0  0  0  0  0  0  0  0  0  0  0  0
   -0.7500    3.8971    0.0000 C   0  0  0  0  0  0  0  0  0  0  0  0
   -1.5000    5.1962    0.0000 C   0  0  0  0  0  0  0  0  0  0  0  0
   -3.0000    5.1962    0.0000 C   0  0  0  0  0  0  0  0  0  0  0  0
   -3.7500    3.8971    0.0000 C   0  0  0  0  0  0  0  0  0  0  0  0
   -3.0000    2.5981    0.0000 C   0  0  0  0  0  0  0  0  0  0  0  0
   -1.5000    0.0000    0.0000 C   0  0  0  0  0  0  0  0  0  0  0  0
   -0.7500   -1.2990    0.0000 C   0  0  0  0  0  0  0  0  0  0  0  0
   -2.3817   -1.3846    0.0000 N   0  0  0  0  0  0  0  0  0  0  0  0
   -3.8083   -1.8481    0.0000 C   0  0  0  0  0  0  0  0  0  0  0  0
   -5.0218   -0.9664    0.0000 N   0  0  0  0  0  0  0  0  0  0  0  0
  1  2  1  0
  2  3  1  0
  3  4  2  0
  3  5  1  0
  5  6  1  0
  6  7  1  0
  7  8  1  0
  7  9  1  0
  7 10  1  0
 10 11  1  0
 11 12  2  0
 12 13  1  0
 13 14  2  0
 14 15  1  0
 15 16  1  0
 16 17  1  0
 17 18  1  0
 18 19  1  0
 19 20  1  0
 14 21  1  0
 21 22  2  0
  5 23  1  0
 23 24  2  0
 24 25  1  0
 24  2  1  0
 22  5  1  0
 22 11  1  0
 20 15  1  0
M  END
>  <id>  (92) 
BACE_957

>  <pic50>  (92) 
6.5559554

>  <pic50_predicted>  (92) 
5.54496754877918

>  <deviation>  (92) 
0.16850028485855648

>  <pic50_predicted_optimized>  (92) 
5.713467833637736

$$$$

     RDKit          2D

 25 28  0  0  0  0  0  0  0  0999 V2000
   -5.0218   -4.2298    0.0000 C   0  0  0  0  0  0  0  0  0  0  0  0
   -3.8083   -3.3481    0.0000 N   0  0  0  0  0  0  0  0  0  0  0  0
   -2.3817   -3.8116    0.0000 C   0  0  0  0  0  0  0  0  0  0  0  0
   -1.9182   -5.2382    0.0000 O   0  0  0  0  0  0  0  0  0  0  0  0
   -1.5000   -2.5981    0.0000 C   0  0  0  0  0  0  0  0  0  0  0  0
   -0.7500   -3.8971    0.0000 C   0  0  0  0  0  0  0  0  0  0  0  0
    0.7500   -3.8971    0.0000 C   0  0  0  0  0  0  0  0  0  0  0  0
    2.1595   -4.4101    0.0000 C   0  0  0  0  0  0  0  0  0  0  0  0
    0.4895   -5.3743    0.0000 C   0  0  0  0  0  0  0  0  0  0  0  0
    1.5000   -2.5981    0.0000 O   0  0  0  0  0  0  0  0  0  0  0  0
    0.7500   -1.2990    0.0000 C   0  0  0  0  0  0  0  0  0  0  0  0
    1.5000    0.0000    0.0000 C   0  0  0  0  0  0  0  0  0  0  0  0
    0.7500    1.2990    0.0000 C   0  0  0  0  0  0  0  0  0  0  0  0
   -0.7500    1.2990    0.0000 C   0  0  0  0  0  0  0  0  0  0  0  0
   -1.5000    2.5981    0.0000 C   0  0  0  0  0  0  0  0  0  0  0  0
   -0.7500    3.8971    0.0000 C   0  0  0  0  0  0  0  0  0  0  0  0
   -1.5000    5.1962    0.0000 C   0  0  0  0  0  0  0  0  0  0  0  0
   -3.0000    5.1962    0.0000 N   0  0  0  0  0  0  0  0  0  0  0  0
   -3.7500    3.8971    0.0000 C   0  0  0  0  0  0  0  0  0  0  0  0
   -3.0000    2.5981    0.0000 C   0  0  0  0  0  0  0  0  0  0  0  0
   -1.5000    0.0000    0.0000 C   0  0  0  0  0  0  0  0  0  0  0  0
   -0.7500   -1.2990    0.0000 C   0  0  0  0  0  0  0  0  0  0  0  0
   -2.3817   -1.3846    0.0000 N   0  0  0  0  0  0  0  0  0  0  0  0
   -3.8083   -1.8481    0.0000 C   0  0  0  0  0  0  0  0  0  0  0  0
   -5.0218   -0.9664    0.0000 N   0  0  0  0  0  0  0  0  0  0  0  0
  1  2  1  0
  2  3  1  0
  3  4  2  0
  3  5  1  0
  5  6  1  0
  6  7  1  0
  7  8  1  0
  7  9  1  0
  7 10  1  0
 10 11  1  0
 11 12  2  0
 12 13  1  0
 13 14  2  0
 14 15  1  0
 15 16  2  0
 16 17  1  0
 17 18  2  0
 18 19  1  0
 19 20  2  0
 14 21  1  0
 21 22  2  0
  5 23  1  0
 23 24  2  0
 24 25  1  0
 24  2  1  0
 22  5  1  0
 22 11  1  0
 20 15  1  0
M  END
>  <id>  (93) 
BACE_1315

>  <pic50>  (93) 
5.2027326

>  <pic50_predicted>  (93) 
6.07554075306887

>  <deviation>  (93) 
-0.020271935112227413

>  <pic50_predicted_optimized>  (93) 
6.055268817956642

$$$$

     RDKit          2D

 22 25  0  0  0  0  0  0  0  0999 V2000
   -0.0000   -5.1073    0.0000 N   0  0  0  0  0  0  0  0  0  0  0  0
   -0.0000   -3.6073    0.0000 C   0  0  0  0  0  0  0  0  0  0  0  0
    1.2135   -2.7256    0.0000 N   0  0  0  0  0  0  0  0  0  0  0  0
    0.7500   -1.2990    0.0000 C   0  0  0  0  0  0  0  0  0  0  0  0
    2.2418   -1.4558    0.0000 C   0  0  0  0  0  0  0  0  0  0  0  0
    2.8519   -2.8261    0.0000 C   0  0  0  0  0  0  0  0  0  0  0  0
    4.3437   -2.9829    0.0000 C   0  0  0  0  0  0  0  0  0  0  0  0
    5.2253   -1.7694    0.0000 C   0  0  0  0  0  0  0  0  0  0  0  0
    4.6152   -0.3991    0.0000 C   0  0  0  0  0  0  0  0  0  0  0  0
    5.4969    0.8144    0.0000 C   0  0  0  0  0  0  0  0  0  0  0  0
    6.9887    0.6576    0.0000 C   0  0  0  0  0  0  0  0  0  0  0  0
    7.8704    1.8712    0.0000 N   0  0  0  0  0  0  0  0  0  0  0  0
    7.2603    3.2415    0.0000 C   0  0  0  0  0  0  0  0  0  0  0  0
    5.7685    3.3983    0.0000 N   0  0  0  0  0  0  0  0  0  0  0  0
    4.8868    2.1847    0.0000 C   0  0  0  0  0  0  0  0  0  0  0  0
    3.1235   -0.2423    0.0000 C   0  0  0  0  0  0  0  0  0  0  0  0
    1.5000    0.0000    0.0000 C   0  0  0  0  0  0  0  0  0  0  0  0
    0.7500    1.2990    0.0000 C   0  0  0  0  0  0  0  0  0  0  0  0
   -0.7500    1.2990    0.0000 C   0  0  0  0  0  0  0  0  0  0  0  0
   -1.5000    0.0000    0.0000 C   0  0  0  0  0  0  0  0  0  0  0  0
   -0.7500   -1.2990    0.0000 C   0  0  0  0  0  0  0  0  0  0  0  0
   -1.2135   -2.7256    0.0000 O   0  0  0  0  0  0  0  0  0  0  0  0
  1  2  1  0
  2  3  2  0
  3  4  1  0
  4  5  1  0
  5  6  2  0
  6  7  1  0
  7  8  2  0
  8  9  1  0
  9 10  1  0
 10 11  2  0
 11 12  1  0
 12 13  2  0
 13 14  1  0
 14 15  2  0
  9 16  2  0
  4 17  1  0
 17 18  1  0
 18 19  1  0
 19 20  1  0
 20 21  1  0
 21 22  1  0
 22  2  1  0
 21  4  1  0
 16  5  1  0
 15 10  1  0
M  END
>  <id>  (94) 
BACE_1458

>  <pic50>  (94) 
4.4522252

>  <pic50_predicted>  (94) 
4.27972772487729

>  <deviation>  (94) 
0.0008807730890909079

>  <pic50_predicted_optimized>  (94) 
4.280608497966381

$$$$

     RDKit          2D

 38 41  0  0  0  0  0  0  0  0999 V2000
   10.8774   -2.3735    0.0000 C   0  0  0  0  0  0  0  0  0  0  0  0
    9.4071   -2.6708    0.0000 C   0  0  0  0  0  0  0  0  0  0  0  0
    8.9294   -4.0926    0.0000 O   0  0  0  0  0  0  0  0  0  0  0  0
    8.4146   -1.5461    0.0000 N   0  0  0  0  0  0  0  0  0  0  0  0
    6.9443   -1.8433    0.0000 C   0  0  0  0  0  0  0  0  0  0  0  0
    6.4666   -3.2652    0.0000 C   0  0  0  0  0  0  0  0  0  0  0  0
    4.9963   -3.5624    0.0000 C   0  0  0  0  0  0  0  0  0  0  0  0
    4.5186   -4.9843    0.0000 C   0  0  0  0  0  0  0  0  0  0  0  0
    3.0483   -5.2815    0.0000 C   0  0  0  0  0  0  0  0  0  0  0  0
    2.5706   -6.7034    0.0000 F   0  0  0  0  0  0  0  0  0  0  0  0
    2.0558   -4.1569    0.0000 C   0  0  0  0  0  0  0  0  0  0  0  0
    2.5335   -2.7350    0.0000 C   0  0  0  0  0  0  0  0  0  0  0  0
    1.5410   -1.6103    0.0000 F   0  0  0  0  0  0  0  0  0  0  0  0
    4.0038   -2.4377    0.0000 C   0  0  0  0  0  0  0  0  0  0  0  0
    5.9518   -0.7186    0.0000 C   0  0  0  0  0  0  0  0  0  0  0  0
    4.4815   -1.0159    0.0000 O   0  0  0  0  0  0  0  0  0  0  0  0
    6.4295    0.7033    0.0000 C   0  0  0  0  0  0  0  0  0  0  0  0
    5.4370    1.8279    0.0000 N   0  0  0  0  0  4  0  0  0  0  0  0
    5.9147    3.2498    0.0000 C   0  0  0  0  0  0  0  0  0  0  0  0
    4.4315    3.4734    0.0000 C   0  0  0  0  0  0  0  0  0  0  0  0
    3.4962    2.3006    0.0000 C   0  0  0  0  0  0  0  0  0  0  0  0
    2.0130    2.5242    0.0000 C   0  0  0  0  0  0  0  0  0  0  0  0
    1.4650    3.9205    0.0000 C   0  0  0  0  0  0  0  0  0  0  0  0
    2.4002    5.0933    0.0000 C   0  0  0  0  0  0  0  0  0  0  0  0
    1.8522    6.4896    0.0000 N   0  0  0  0  0  0  0  0  0  0  0  0
    2.8725    7.5891    0.0000 C   0  0  0  0  0  0  0  0  0  0  0  0
    2.6489    9.0724    0.0000 C   0  0  0  0  0  0  0  0  0  0  0  0
    1.3499    9.8224    0.0000 C   0  0  0  0  0  0  0  0  0  0  0  0
   -0.0465    9.2744    0.0000 O   0  0  0  0  0  0  0  0  0  0  0  0
   -0.4886    7.8410    0.0000 C   0  0  0  0  0  0  0  0  0  0  0  0
    0.3564    6.6017    0.0000 C   0  0  0  0  0  0  0  0  0  0  0  0
   -0.3936    5.3026    0.0000 O   0  0  0  0  0  0  0  0  0  0  0  0
    3.8835    4.8697    0.0000 C   0  0  0  0  0  0  0  0  0  0  0  0
    5.8773    4.7494    0.0000 C   0  0  0  0  0  0  0  0  0  0  0  0
    7.1573    5.5315    0.0000 C   0  0  0  0  0  0  0  0  0  0  0  0
    8.4746    4.8141    0.0000 C   0  0  0  0  0  0  0  0  0  0  0  0
    8.5120    3.3146    0.0000 C   0  0  0  0  0  0  0  0  0  0  0  0
    7.2320    2.5324    0.0000 C   0  0  0  0  0  0  0  0  0  0  0  0
  1  2  1  0
  2  3  2  0
  2  4  1  0
  4  5  1  0
  5  6  1  0
  6  7  1  0
  7  8  2  0
  8  9  1  0
  9 10  1  0
  9 11  2  0
 11 12  1  0
 12 13  1  0
 12 14  2  0
  5 15  1  0
 15 16  1  0
 15 17  1  0
 17 18  1  0
 18 19  1  0
 19 20  1  0
 20 21  2  0
 21 22  1  0
 22 23  2  0
 23 24  1  0
 24 25  1  0
 25 26  1  0
 26 27  1  0
 27 28  1  0
 28 29  1  0
 29 30  1  0
 30 31  1  0
 31 32  2  0
 24 33  2  0
 19 34  1  0
 34 35  1  0
 35 36  1  0
 36 37  1  0
 37 38  1  0
 14  7  1  0
 38 19  1  0
 33 20  1  0
 31 25  1  0
M  CHG  1  18   1
M  END
>  <id>  (95) 
BACE_1075

>  <pic50>  (95) 
6.124939

>  <pic50_predicted>  (95) 
6.04598655394495

>  <deviation>  (95) 
-0.00053819359787219

>  <pic50_predicted_optimized>  (95) 
6.045448360347078

$$$$

     RDKit          2D

 35 38  0  0  0  0  0  0  0  0999 V2000
   -3.0000   -5.1962    0.0000 C   0  0  0  0  0  0  0  0  0  0  0  0
   -1.5000   -5.1962    0.0000 C   0  0  0  0  0  0  0  0  0  0  0  0
   -0.7500   -6.4952    0.0000 O   0  0  0  0  0  0  0  0  0  0  0  0
   -0.7500   -3.8971    0.0000 N   0  0  0  0  0  0  0  0  0  0  0  0
    0.7500   -3.8971    0.0000 C   0  0  0  0  0  0  0  0  0  0  0  0
    1.5000   -2.5981    0.0000 C   0  0  0  0  0  0  0  0  0  0  0  0
    0.7500   -1.2990    0.0000 C   0  0  0  0  0  0  0  0  0  0  0  0
    1.5000    0.0000    0.0000 C   0  0  0  0  0  0  0  0  0  0  0  0
    0.7500    1.2990    0.0000 C   0  0  0  0  0  0  0  0  0  0  0  0
    1.5000    2.5981    0.0000 F   0  0  0  0  0  0  0  0  0  0  0  0
   -0.7500    1.2990    0.0000 C   0  0  0  0  0  0  0  0  0  0  0  0
   -1.5000    0.0000    0.0000 C   0  0  0  0  0  0  0  0  0  0  0  0
   -3.0000    0.0000    0.0000 F   0  0  0  0  0  0  0  0  0  0  0  0
   -0.7500   -1.2990    0.0000 C   0  0  0  0  0  0  0  0  0  0  0  0
    1.5000   -5.1962    0.0000 C   0  0  0  0  0  0  0  0  0  0  0  0
    3.0000   -5.1962    0.0000 O   0  0  0  0  0  0  0  0  0  0  0  0
    0.7500   -6.4952    0.0000 C   0  0  0  0  0  0  0  0  0  0  0  0
    1.5000   -7.7942    0.0000 N   0  0  0  0  0  4  0  0  0  0  0  0
    0.7500   -9.0933    0.0000 C   0  0  0  0  0  0  0  0  0  0  0  0
    2.1595   -9.6063    0.0000 C   0  0  0  0  0  0  0  0  0  0  0  0
    3.3086   -8.6421    0.0000 C   0  0  0  0  0  0  0  0  0  0  0  0
    4.7181   -9.1551    0.0000 C   0  0  0  0  0  0  0  0  0  0  0  0
    4.9786  -10.6324    0.0000 C   0  0  0  0  0  0  0  0  0  0  0  0
    3.8296  -11.5965    0.0000 C   0  0  0  0  0  0  0  0  0  0  0  0
    4.0900  -13.0738    0.0000 C   0  0  0  0  0  0  0  0  0  0  0  0
    3.0480  -14.1528    0.0000 C   0  0  0  0  0  0  0  0  0  0  0  0
    3.7522  -15.4772    0.0000 C   0  0  0  0  0  0  0  0  0  0  0  0
    5.2295  -15.2167    0.0000 O   0  0  0  0  0  0  0  0  0  0  0  0
    5.4382  -13.7313    0.0000 C   0  0  0  0  0  0  0  0  0  0  0  0
    2.4200  -11.0835    0.0000 C   0  0  0  0  0  0  0  0  0  0  0  0
   -0.3991   -8.1291    0.0000 C   0  0  0  0  0  0  0  0  0  0  0  0
   -1.8086   -8.6421    0.0000 C   0  0  0  0  0  0  0  0  0  0  0  0
   -2.0691  -10.1193    0.0000 C   0  0  0  0  0  0  0  0  0  0  0  0
   -0.9200  -11.0835    0.0000 C   0  0  0  0  0  0  0  0  0  0  0  0
    0.4895  -10.5705    0.0000 C   0  0  0  0  0  0  0  0  0  0  0  0
  1  2  1  0
  2  3  2  0
  2  4  1  0
  4  5  1  0
  5  6  1  0
  6  7  1  0
  7  8  2  0
  8  9  1  0
  9 10  1  0
  9 11  2  0
 11 12  1  0
 12 13  1  0
 12 14  2  0
  5 15  1  0
 15 16  1  0
 15 17  1  0
 17 18  1  0
 18 19  1  0
 19 20  1  0
 20 21  2  0
 21 22  1  0
 22 23  2  0
 23 24  1  0
 24 25  1  0
 25 26  1  0
 26 27  1  0
 27 28  1  0
 28 29  1  0
 24 30  2  0
 19 31  1  0
 31 32  1  0
 32 33  1  0
 33 34  1  0
 34 35  1  0
 14  7  1  0
 35 19  1  0
 30 20  1  0
 29 25  1  0
M  CHG  1  18   1
M  END
>  <id>  (96) 
BACE_793

>  <pic50>  (96) 
7.0555172

>  <pic50_predicted>  (96) 
5.93186260400889

>  <deviation>  (96) 
-0.0005381935978751784

>  <pic50_predicted_optimized>  (96) 
5.9313244104110145

$$$$

     RDKit          2D

 35 38  0  0  0  0  0  0  0  0999 V2000
   -3.0000   -5.1962    0.0000 C   0  0  0  0  0  0  0  0  0  0  0  0
   -1.5000   -5.1962    0.0000 C   0  0  0  0  0  0  0  0  0  0  0  0
   -0.7500   -6.4952    0.0000 O   0  0  0  0  0  0  0  0  0  0  0  0
   -0.7500   -3.8971    0.0000 N   0  0  0  0  0  0  0  0  0  0  0  0
    0.7500   -3.8971    0.0000 C   0  0  0  0  0  0  0  0  0  0  0  0
    1.5000   -2.5981    0.0000 C   0  0  0  0  0  0  0  0  0  0  0  0
    0.7500   -1.2990    0.0000 C   0  0  0  0  0  0  0  0  0  0  0  0
    1.5000    0.0000    0.0000 C   0  0  0  0  0  0  0  0  0  0  0  0
    0.7500    1.2990    0.0000 C   0  0  0  0  0  0  0  0  0  0  0  0
    1.5000    2.5981    0.0000 F   0  0  0  0  0  0  0  0  0  0  0  0
   -0.7500    1.2990    0.0000 C   0  0  0  0  0  0  0  0  0  0  0  0
   -1.5000    0.0000    0.0000 C   0  0  0  0  0  0  0  0  0  0  0  0
   -3.0000    0.0000    0.0000 F   0  0  0  0  0  0  0  0  0  0  0  0
   -0.7500   -1.2990    0.0000 C   0  0  0  0  0  0  0  0  0  0  0  0
    1.5000   -5.1962    0.0000 C   0  0  0  0  0  0  0  0  0  0  0  0
    3.0000   -5.1962    0.0000 O   0  0  0  0  0  0  0  0  0  0  0  0
    0.7500   -6.4952    0.0000 C   0  0  0  0  0  0  0  0  0  0  0  0
    1.5000   -7.7942    0.0000 N   0  0  0  0  0  4  0  0  0  0  0  0
    0.7500   -9.0933    0.0000 C   0  0  0  0  0  0  0  0  0  0  0  0
    2.1595   -9.6063    0.0000 C   0  0  0  0  0  0  0  0  0  0  0  0
    3.3086   -8.6421    0.0000 C   0  0  0  0  0  0  0  0  0  0  0  0
    4.7181   -9.1551    0.0000 C   0  0  0  0  0  0  0  0  0  0  0  0
    4.9786  -10.6324    0.0000 C   0  0  0  0  0  0  0  0  0  0  0  0
    3.8296  -11.5965    0.0000 C   0  0  0  0  0  0  0  0  0  0  0  0
    4.0900  -13.0738    0.0000 N   0  0  0  0  0  0  0  0  0  0  0  0
    3.0480  -14.1528    0.0000 N   0  0  0  0  0  0  0  0  0  0  0  0
    3.7522  -15.4772    0.0000 C   0  0  0  0  0  0  0  0  0  0  0  0
    5.2295  -15.2167    0.0000 C   0  0  0  0  0  0  0  0  0  0  0  0
    5.4382  -13.7313    0.0000 N   0  0  0  0  0  0  0  0  0  0  0  0
    2.4200  -11.0835    0.0000 C   0  0  0  0  0  0  0  0  0  0  0  0
   -0.3991   -8.1291    0.0000 C   0  0  0  0  0  0  0  0  0  0  0  0
   -1.8086   -8.6421    0.0000 C   0  0  0  0  0  0  0  0  0  0  0  0
   -2.0691  -10.1193    0.0000 C   0  0  0  0  0  0  0  0  0  0  0  0
   -0.9200  -11.0835    0.0000 C   0  0  0  0  0  0  0  0  0  0  0  0
    0.4895  -10.5705    0.0000 C   0  0  0  0  0  0  0  0  0  0  0  0
  1  2  1  0
  2  3  2  0
  2  4  1  0
  4  5  1  0
  5  6  1  0
  6  7  1  0
  7  8  2  0
  8  9  1  0
  9 10  1  0
  9 11  2  0
 11 12  1  0
 12 13  1  0
 12 14  2  0
  5 15  1  0
 15 16  1  0
 15 17  1  0
 17 18  1  0
 18 19  1  0
 19 20  1  0
 20 21  2  0
 21 22  1  0
 22 23  2  0
 23 24  1  0
 24 25  1  0
 25 26  1  0
 26 27  2  0
 27 28  1  0
 28 29  2  0
 24 30  2  0
 19 31  1  0
 31 32  1  0
 32 33  1  0
 33 34  1  0
 34 35  1  0
 14  7  1  0
 35 19  1  0
 30 20  1  0
 29 25  1  0
M  CHG  1  18   1
M  END
>  <id>  (97) 
BACE_1332

>  <pic50>  (97) 
5.1135092

>  <pic50_predicted>  (97) 
6.90016853093779

>  <deviation>  (97) 
-0.000538193597869878

>  <pic50_predicted_optimized>  (97) 
6.89963033733992

$$$$

     RDKit          2D

 27 30  0  0  0  0  0  0  0  0999 V2000
    3.7500   -1.2990    0.0000 C   0  0  0  0  0  0  0  0  0  0  0  0
    3.0000    0.0000    0.0000 O   0  0  0  0  0  0  0  0  0  0  0  0
    1.5000    0.0000    0.0000 C   0  0  0  0  0  0  0  0  0  0  0  0
    0.7500   -1.2990    0.0000 C   0  0  0  0  0  0  0  0  0  0  0  0
   -0.7500   -1.2990    0.0000 N   0  0  0  0  0  0  0  0  0  0  0  0
   -1.5000    0.0000    0.0000 C   0  0  0  0  0  0  0  0  0  0  0  0
   -0.7500    1.2990    0.0000 C   0  0  0  0  0  0  0  0  0  0  0  0
   -1.5000    2.5981    0.0000 C   0  0  0  0  0  0  0  0  0  0  0  0
   -0.7500    3.8971    0.0000 C   0  0  0  0  0  0  0  0  0  0  0  0
   -1.5000    5.1962    0.0000 C   0  0  0  0  0  0  0  0  0  0  0  0
   -3.0000    5.1962    0.0000 C   0  0  0  0  0  0  0  0  0  0  0  0
   -3.7500    3.8971    0.0000 C   0  0  0  0  0  0  0  0  0  0  0  0
   -5.2500    3.8971    0.0000 C   0  0  0  0  0  0  0  0  0  0  0  0
   -5.0932    2.4053    0.0000 C   0  0  0  0  0  0  0  0  0  0  0  0
   -3.7942    1.6553    0.0000 C   0  0  0  0  0  0  0  0  0  0  0  0
   -4.1060    0.1881    0.0000 C   0  0  0  0  0  0  0  0  0  0  0  0
   -5.5978    0.0313    0.0000 S   0  0  0  0  0  0  0  0  0  0  0  0
   -6.2079    1.4016    0.0000 C   0  0  0  0  0  0  0  0  0  0  0  0
   -6.7172    3.5852    0.0000 N   0  0  0  0  0  0  0  0  0  0  0  0
   -7.4672    4.8843    0.0000 C   0  0  0  0  0  0  0  0  0  0  0  0
   -8.9590    5.0411    0.0000 N   0  0  0  0  0  0  0  0  0  0  0  0
   -6.4635    5.9990    0.0000 N   0  0  0  0  0  0  0  0  0  0  0  0
   -6.7754    7.4662    0.0000 C   0  0  0  0  0  0  0  0  0  0  0  0
   -5.0932    5.3889    0.0000 C   0  0  0  0  0  0  0  0  0  0  0  0
   -3.7942    6.1389    0.0000 O   0  0  0  0  0  0  0  0  0  0  0  0
   -3.0000    2.5981    0.0000 C   0  0  0  0  0  0  0  0  0  0  0  0
    0.7500    1.2990    0.0000 C   0  0  0  0  0  0  0  0  0  0  0  0
  1  2  1  0
  2  3  1  0
  3  4  2  0
  4  5  1  0
  5  6  2  0
  6  7  1  0
  7  8  1  0
  8  9  2  0
  9 10  1  0
 10 11  2  0
 11 12  1  0
 12 13  1  0
 13 14  1  0
 14 15  1  0
 15 16  2  0
 16 17  1  0
 17 18  1  0
 13 19  1  0
 19 20  2  0
 20 21  1  0
 20 22  1  0
 22 23  1  0
 22 24  1  0
 24 25  2  0
 12 26  2  0
  7 27  2  0
 27  3  1  0
 26  8  1  0
 24 13  1  0
 18 14  2  0
M  END
>  <id>  (98) 
BACE_656

>  <pic50>  (98) 
7.3979402

>  <pic50_predicted>  (98) 
7.04804362653067

>  <deviation>  (98) 
0.1711258411564433

>  <pic50_predicted_optimized>  (98) 
7.219169467687113

$$$$

     RDKit          2D

 25 28  0  0  0  0  0  0  0  0999 V2000
   -0.0000   -5.1073    0.0000 N   0  0  0  0  0  0  0  0  0  0  0  0
   -0.0000   -3.6073    0.0000 C   0  0  0  0  0  0  0  0  0  0  0  0
    1.2135   -2.7256    0.0000 N   0  0  0  0  0  0  0  0  0  0  0  0
    0.7500   -1.2990    0.0000 C   0  0  0  0  0  0  0  0  0  0  0  0
    2.2418   -1.4558    0.0000 C   0  0  0  0  0  0  0  0  0  0  0  0
    2.8519   -2.8261    0.0000 C   0  0  0  0  0  0  0  0  0  0  0  0
    4.3437   -2.9829    0.0000 C   0  0  0  0  0  0  0  0  0  0  0  0
    5.2253   -1.7694    0.0000 C   0  0  0  0  0  0  0  0  0  0  0  0
    4.6152   -0.3991    0.0000 C   0  0  0  0  0  0  0  0  0  0  0  0
    5.4969    0.8144    0.0000 N   0  0  0  0  0  0  0  0  0  0  0  0
    6.9887    0.6576    0.0000 C   0  0  0  0  0  0  0  0  0  0  0  0
    7.5988   -0.7127    0.0000 O   0  0  0  0  0  0  0  0  0  0  0  0
    7.8704    1.8712    0.0000 C   0  0  0  0  0  0  0  0  0  0  0  0
    9.3622    1.7144    0.0000 C   0  0  0  0  0  0  0  0  0  0  0  0
   10.2438    2.9279    0.0000 C   0  0  0  0  0  0  0  0  0  0  0  0
    9.6337    4.2982    0.0000 C   0  0  0  0  0  0  0  0  0  0  0  0
    8.1420    4.4550    0.0000 C   0  0  0  0  0  0  0  0  0  0  0  0
    7.2603    3.2415    0.0000 N   0  0  0  0  0  0  0  0  0  0  0  0
    3.1235   -0.2423    0.0000 C   0  0  0  0  0  0  0  0  0  0  0  0
    1.5000    0.0000    0.0000 C   0  0  0  0  0  0  0  0  0  0  0  0
    0.7500    1.2990    0.0000 C   0  0  0  0  0  0  0  0  0  0  0  0
   -0.7500    1.2990    0.0000 C   0  0  0  0  0  0  0  0  0  0  0  0
   -1.5000    0.0000    0.0000 C   0  0  0  0  0  0  0  0  0  0  0  0
   -0.7500   -1.2990    0.0000 C   0  0  0  0  0  0  0  0  0  0  0  0
   -1.2135   -2.7256    0.0000 O   0  0  0  0  0  0  0  0  0  0  0  0
  1  2  1  0
  2  3  2  0
  3  4  1  0
  4  5  1  0
  5  6  2  0
  6  7  1  0
  7  8  2  0
  8  9  1  0
  9 10  1  0
 10 11  1  0
 11 12  2  0
 11 13  1  0
 13 14  2  0
 14 15  1  0
 15 16  2  0
 16 17  1  0
 17 18  2  0
  9 19  2  0
  4 20  1  0
 20 21  1  0
 21 22  1  0
 22 23  1  0
 23 24  1  0
 24 25  1  0
 25  2  1  0
 24  4  1  0
 19  5  1  0
 18 13  1  0
M  END
>  <id>  (99) 
BACE_1522

>  <pic50>  (99) 
3.6989701

>  <pic50_predicted>  (99) 
3.92656122151682

>  <deviation>  (99) 
0.010226679606126445

>  <pic50_predicted_optimized>  (99) 
3.9367879011229463

$$$$

     RDKit          2D

 25 28  0  0  0  0  0  0  0  0999 V2000
    3.0000    0.0000    0.0000 C   0  0  0  0  0  0  0  0  0  0  0  0
    1.5000    0.0000    0.0000 N   0  0  0  0  0  0  0  0  0  0  0  0
    0.7500   -1.2990    0.0000 C   0  0  0  0  0  0  0  0  0  0  0  0
    1.5000   -2.5981    0.0000 O   0  0  0  0  0  0  0  0  0  0  0  0
   -0.7500   -1.2990    0.0000 C   0  0  0  0  0  0  0  0  0  0  0  0
   -1.5000    0.0000    0.0000 C   0  0  0  0  0  0  0  0  0  0  0  0
   -2.6491   -0.9642    0.0000 C   0  0  0  0  0  0  0  0  0  0  0  0
   -2.6491    0.9642    0.0000 C   0  0  0  0  0  0  0  0  0  0  0  0
   -4.1263    1.2247    0.0000 C   0  0  0  0  0  0  0  0  0  0  0  0
   -3.1621    2.3737    0.0000 C   0  0  0  0  0  0  0  0  0  0  0  0
   -2.9016    3.8509    0.0000 C   0  0  0  0  0  0  0  0  0  0  0  0
   -1.4921    4.3640    0.0000 C   0  0  0  0  0  0  0  0  0  0  0  0
   -1.2316    5.8412    0.0000 C   0  0  0  0  0  0  0  0  0  0  0  0
   -2.3807    6.8054    0.0000 C   0  0  0  0  0  0  0  0  0  0  0  0
   -3.7902    6.2923    0.0000 C   0  0  0  0  0  0  0  0  0  0  0  0
   -4.9393    7.2565    0.0000 C   0  0  0  0  0  0  0  0  0  0  0  0
   -4.6788    8.7337    0.0000 C   0  0  0  0  0  0  0  0  0  0  0  0
   -5.8279    9.6979    0.0000 C   0  0  0  0  0  0  0  0  0  0  0  0
   -7.2374    9.1849    0.0000 C   0  0  0  0  0  0  0  0  0  0  0  0
   -7.4979    7.7077    0.0000 N   0  0  0  0  0  0  0  0  0  0  0  0
   -6.3488    6.7435    0.0000 C   0  0  0  0  0  0  0  0  0  0  0  0
   -4.0507    4.8151    0.0000 C   0  0  0  0  0  0  0  0  0  0  0  0
   -0.7500    1.2990    0.0000 N   0  0  0  0  0  0  0  0  0  0  0  0
    0.7500    1.2990    0.0000 C   0  0  0  0  0  0  0  0  0  0  0  0
    1.5000    2.5981    0.0000 N   0  0  0  0  0  0  0  0  0  0  0  0
  1  2  1  0
  2  3  1  0
  3  4  2  0
  3  5  1  0
  5  6  1  0
  6  7  1  0
  6  8  1  0
  8  9  1  0
  9 10  1  0
 10 11  1  0
 11 12  2  0
 12 13  1  0
 13 14  2  0
 14 15  1  0
 15 16  1  0
 16 17  2  0
 17 18  1  0
 18 19  2  0
 19 20  1  0
 20 21  2  0
 15 22  2  0
  6 23  1  0
 23 24  2  0
 24 25  1  0
 24  2  1  0
 10  8  1  0
 22 11  1  0
 21 16  1  0
M  END
>  <id>  (100) 
BACE_1383

>  <pic50>  (100) 
4.9281178

>  <pic50_predicted>  (100) 
5.68233376410805

>  <deviation>  (100) 
-0.007767555813952807

>  <pic50_predicted_optimized>  (100) 
5.674566208294097

$$$$

     RDKit          2D

 33 37  0  0  0  0  0  0  0  0999 V2000
   -2.6401   -3.1891    0.0000 N   0  0  0  0  0  0  0  0  0  0  0  0
   -1.2135   -2.7256    0.0000 C   0  0  0  0  0  0  0  0  0  0  0  0
   -0.0000   -3.6073    0.0000 N   0  0  0  0  0  4  0  0  0  0  0  0
    1.2135   -2.7256    0.0000 C   0  0  0  0  0  0  0  0  0  0  0  0
    2.5838   -2.1155    0.0000 C   0  0  0  0  0  0  0  0  0  0  0  0
    3.7974   -2.9972    0.0000 C   0  0  0  0  0  0  0  0  0  0  0  0
    5.1677   -2.3871    0.0000 C   0  0  0  0  0  0  0  0  0  0  0  0
    5.3245   -0.8953    0.0000 C   0  0  0  0  0  0  0  0  0  0  0  0
    6.6948   -0.2852    0.0000 O   0  0  0  0  0  0  0  0  0  0  0  0
    7.9083   -1.1669    0.0000 C   0  0  0  0  0  0  0  0  0  0  0  0
    9.1218   -2.0486    0.0000 F   0  0  0  0  0  0  0  0  0  0  0  0
    8.7900    0.0466    0.0000 F   0  0  0  0  0  0  0  0  0  0  0  0
    7.0266   -2.3804    0.0000 F   0  0  0  0  0  0  0  0  0  0  0  0
    4.1110   -0.0136    0.0000 C   0  0  0  0  0  0  0  0  0  0  0  0
    2.7406   -0.6237    0.0000 C   0  0  0  0  0  0  0  0  0  0  0  0
    1.9635   -4.0247    0.0000 C   0  0  0  0  0  0  0  0  0  0  0  0
    1.2135   -5.3237    0.0000 C   0  0  0  0  0  0  0  0  0  0  0  0
    1.9635   -6.6227    0.0000 C   0  0  0  0  0  0  0  0  0  0  0  0
    3.4635   -6.6227    0.0000 C   0  0  0  0  0  0  0  0  0  0  0  0
    4.2135   -5.3237    0.0000 C   0  0  0  0  0  0  0  0  0  0  0  0
    5.7135   -5.3237    0.0000 C   0  0  0  0  0  0  0  0  0  0  0  0
    6.4635   -6.6227    0.0000 C   0  0  0  0  0  0  0  0  0  0  0  0
    7.9635   -6.6227    0.0000 N   0  0  0  0  0  0  0  0  0  0  0  0
    8.7135   -5.3237    0.0000 C   0  0  0  0  0  0  0  0  0  0  0  0
    7.9635   -4.0247    0.0000 N   0  0  0  0  0  0  0  0  0  0  0  0
    6.4635   -4.0247    0.0000 C   0  0  0  0  0  0  0  0  0  0  0  0
    3.4635   -4.0247    0.0000 C   0  0  0  0  0  0  0  0  0  0  0  0
    0.7500   -1.2990    0.0000 C   0  0  0  0  0  0  0  0  0  0  0  0
    1.5000    0.0000    0.0000 N   0  0  0  0  0  0  0  0  0  0  0  0
    0.7500    1.2990    0.0000 C   0  0  0  0  0  0  0  0  0  0  0  0
   -0.7500    1.2990    0.0000 C   0  0  0  0  0  0  0  0  0  0  0  0
   -1.5000    0.0000    0.0000 C   0  0  0  0  0  0  0  0  0  0  0  0
   -0.7500   -1.2990    0.0000 N   0  0  0  0  0  0  0  0  0  0  0  0
  1  2  1  0
  2  3  2  0
  3  4  1  0
  4  5  1  1
  5  6  2  0
  6  7  1  0
  7  8  2  0
  8  9  1  0
  9 10  1  0
 10 11  1  0
 10 12  1  0
 10 13  1  0
  8 14  1  0
 14 15  2  0
  4 16  1  0
 16 17  2  0
 17 18  1  0
 18 19  2  0
 19 20  1  0
 20 21  1  0
 21 22  2  0
 22 23  1  0
 23 24  2  0
 24 25  1  0
 25 26  2  0
 20 27  2  0
  4 28  1  0
 28 29  2  0
 29 30  1  0
 30 31  1  0
 31 32  1  0
 32 33  1  0
 33  2  1  0
 15  5  1  0
 27 16  1  0
 33 28  1  0
 26 21  1  0
M  CHG  1   3   1
M  END
>  <id>  (101) 
BACE_1083

>  <pic50>  (101) 
6.1023731

>  <pic50_predicted>  (101) 
7.24151242360807

>  <deviation>  (101) 
-0.7690424617726506

>  <pic50_predicted_optimized>  (101) 
6.472469961835419

$$$$

     RDKit          2D

 39 42  0  0  0  0  0  0  0  0999 V2000
   -6.2977   -3.8642    0.0000 C   0  0  0  0  0  0  0  0  0  0  0  0
   -5.1486   -4.8284    0.0000 C   0  0  0  0  0  0  0  0  0  0  0  0
   -5.4091   -6.3056    0.0000 O   0  0  0  0  0  0  0  0  0  0  0  0
   -3.7391   -4.3153    0.0000 N   0  0  0  0  0  0  0  0  0  0  0  0
   -2.5900   -5.2795    0.0000 C   0  0  0  0  0  0  0  0  0  0  0  0
   -2.8505   -6.7567    0.0000 C   0  0  0  0  0  0  0  0  0  0  0  0
   -1.7014   -7.7209    0.0000 C   0  0  0  0  0  0  0  0  0  0  0  0
   -0.2919   -7.2079    0.0000 C   0  0  0  0  0  0  0  0  0  0  0  0
    0.8572   -8.1721    0.0000 C   0  0  0  0  0  0  0  0  0  0  0  0
    2.2667   -7.6590    0.0000 F   0  0  0  0  0  0  0  0  0  0  0  0
    0.5967   -9.6493    0.0000 C   0  0  0  0  0  0  0  0  0  0  0  0
   -0.8128  -10.1623    0.0000 C   0  0  0  0  0  0  0  0  0  0  0  0
   -1.0733  -11.6395    0.0000 F   0  0  0  0  0  0  0  0  0  0  0  0
   -1.9619   -9.1981    0.0000 C   0  0  0  0  0  0  0  0  0  0  0  0
   -1.1805   -4.7665    0.0000 C   0  0  0  0  0  0  0  0  0  0  0  0
   -0.0314   -5.7307    0.0000 O   0  0  0  0  0  0  0  0  0  0  0  0
   -0.9200   -3.2893    0.0000 C   0  0  0  0  0  0  0  0  0  0  0  0
    0.4895   -2.7762    0.0000 N   0  0  0  0  0  4  0  0  0  0  0  0
    0.7500   -1.2990    0.0000 C   0  0  0  0  0  0  0  0  0  0  0  0
    2.1595   -1.8121    0.0000 C   0  0  0  0  0  0  0  0  0  0  0  0
    2.4200   -3.2893    0.0000 C   0  0  0  0  0  0  0  0  0  0  0  0
    3.8296   -3.8023    0.0000 C   0  0  0  0  0  0  0  0  0  0  0  0
    4.9786   -2.8381    0.0000 C   0  0  0  0  0  0  0  0  0  0  0  0
    4.7181   -1.3609    0.0000 C   0  0  0  0  0  0  0  0  0  0  0  0
    5.8672   -0.3967    0.0000 C   0  0  0  0  0  0  0  0  0  0  0  0
    6.8314   -1.5458    0.0000 C   0  0  0  0  0  0  0  0  0  0  0  0
    4.9030    0.7523    0.0000 C   0  0  0  0  0  0  0  0  0  0  0  0
    7.0163    0.5674    0.0000 C   0  0  0  0  0  0  0  0  0  0  0  0
    3.3086   -0.8479    0.0000 C   0  0  0  0  0  0  0  0  0  0  0  0
    1.5000    0.0000    0.0000 C   0  0  0  0  0  0  0  0  0  0  0  0
    0.7500    1.2990    0.0000 C   0  0  0  0  0  0  0  0  0  0  0  0
   -0.7500    1.2990    0.0000 C   0  0  0  0  0  0  0  0  0  0  0  0
   -1.5000    2.5981    0.0000 N   0  0  0  0  0  0  0  0  0  0  0  0
   -3.0000    2.5981    0.0000 C   0  0  0  0  0  0  0  0  0  0  0  0
   -3.7500    3.8971    0.0000 N   0  0  0  0  0  0  0  0  0  0  0  0
   -3.7500    1.2990    0.0000 N   0  0  0  0  0  0  0  0  0  0  0  0
   -3.0000    0.0000    0.0000 C   0  0  0  0  0  0  0  0  0  0  0  0
   -1.5000    0.0000    0.0000 C   0  0  0  0  0  0  0  0  0  0  0  0
   -0.7500   -1.2990    0.0000 C   0  0  0  0  0  0  0  0  0  0  0  0
  1  2  1  0
  2  3  2  0
  2  4  1  0
  4  5  1  0
  5  6  1  0
  6  7  1  0
  7  8  2  0
  8  9  1  0
  9 10  1  0
  9 11  2  0
 11 12  1  0
 12 13  1  0
 12 14  2  0
  5 15  1  0
 15 16  1  0
 15 17  1  0
 17 18  1  0
 18 19  1  0
 19 20  1  0
 20 21  2  0
 21 22  1  0
 22 23  2  0
 23 24  1  0
 24 25  1  0
 25 26  1  0
 25 27  1  0
 25 28  1  0
 24 29  2  0
 19 30  1  0
 30 31  1  0
 31 32  1  0
 32 33  2  0
 33 34  1  0
 34 35  1  0
 34 36  2  0
 36 37  1  0
 37 38  2  0
 38 39  1  0
 14  7  1  0
 39 19  1  0
 29 20  1  0
 38 32  1  0
M  CHG  1  18   1
M  END
>  <id>  (102) 
BACE_446

>  <pic50>  (102) 
7.8538718

>  <pic50_predicted>  (102) 
7.12081785511907

>  <deviation>  (102) 
-0.168227777559534

>  <pic50_predicted_optimized>  (102) 
6.952590077559536

$$$$
